                                  MODFLOW-NWT-SWR1 
      U.S. GEOLOGICAL SURVEY MODULAR FINITE-DIFFERENCE GROUNDWATER-FLOW MODEL
                             VERSION 1.1.4 4/01/2018
                    BASED ON MODFLOW-2005 VERSION 1.12.00 02/03/2017

 LIST FILE: C:/GitHub/FUSE/Modflow/output/Bhima_transient.list
                         UNIT    2

 OPENING C:/GitHub/FUSE/Modflow/output/Bhima_transient.dis
 FILE TYPE:DIS   UNIT   11   STATUS:OLD    
 FORMAT:FORMATTED              ACCESS:SEQUENTIAL          

 OPENING C:/GitHub/FUSE/Modflow/output/Bhima_transient.bas
 FILE TYPE:BAS6   UNIT   13   STATUS:OLD    
 FORMAT:FORMATTED              ACCESS:SEQUENTIAL          

 OPENING C:/GitHub/FUSE/Modflow/output/Bhima_transient.upw
 FILE TYPE:UPW   UNIT   31   STATUS:OLD    
 FORMAT:FORMATTED              ACCESS:SEQUENTIAL          

 OPENING C:/GitHub/FUSE/Modflow/output/Bhima_transient.nwt
 FILE TYPE:NWT   UNIT   32   STATUS:OLD    
 FORMAT:FORMATTED              ACCESS:SEQUENTIAL          

 OPENING C:/GitHub/FUSE/Modflow/output/Bhima_transient.drn
 FILE TYPE:DRN   UNIT   21   STATUS:OLD    
 FORMAT:FORMATTED              ACCESS:SEQUENTIAL          

 OPENING C:/GitHub/FUSE/Modflow/output/Bhima_transient.wel
 FILE TYPE:WEL   UNIT   20   STATUS:OLD    
 FORMAT:FORMATTED              ACCESS:SEQUENTIAL          

 OPENING C:/GitHub/FUSE/Modflow/output/Bhima_transient.rch
 FILE TYPE:RCH   UNIT   19   STATUS:OLD    
 FORMAT:FORMATTED              ACCESS:SEQUENTIAL          

 OPENING C:/GitHub/FUSE/Modflow/output/Bhima_transient.oc
 FILE TYPE:OC   UNIT   14   STATUS:OLD    
 FORMAT:FORMATTED              ACCESS:SEQUENTIAL          

 OPENING C:/GitHub/FUSE/Modflow/output/Bhima_transient.hds
 FILE TYPE:DATA(BINARY)   UNIT   51   STATUS:REPLACE
 FORMAT:BINARY                 ACCESS:SEQUENTIAL          

 OPENING C:/GitHub/FUSE/Modflow/output/Bhima_transient.out
 FILE TYPE:DATA   UNIT   50   STATUS:UNKNOWN
 FORMAT:FORMATTED              ACCESS:SEQUENTIAL          

 BAS -- BASIC PACKAGE, VERSION 1.1.4, 4/01/2018 INPUT READ FROM UNIT   13
 
 MODFLOW was compiled using mixed precision
 Precision of REAL variables:           6
 Precision of DOUBLE PRECISION variables:          15

 DISCRETIZATION INPUT DATA READ FROM UNIT   11
 # DIS package for  MODFLOW-NWT, generated by Flopy.
    1 LAYERS       158 ROWS       342 COLUMNS
    1 STRESS PERIOD(S) IN SIMULATION
 MODEL TIME UNIT IS DAYS
 MODEL LENGTH UNIT IS METERS
  Confining bed flag for each layer:
   0

                     DELR =   500.000    

                     DELC =   500.000    



           TOP ELEVATION OF LAYER 1
 READING ON UNIT   11 WITH FORMAT: (342E15.6)          



             MODEL LAYER BOTTOM EL. FOR LAYER   1
 READING ON UNIT   11 WITH FORMAT: (342E15.6)          


 STRESS PERIOD     LENGTH       TIME STEPS     MULTIPLIER FOR DELT    SS FLAG
 ----------------------------------------------------------------------------
        1         1.000000          1                    1.000         TR

 TRANSIENT SIMULATION



 
 # BAS6 package for  MODFLOW-NWT, generated by Flopy.                            
 THE FREE FORMAT OPTION HAS BEEN SELECTED



                     BOUNDARY ARRAY FOR LAYER   1
 READING ON UNIT   13 WITH FORMAT: (342I10)            

 AQUIFER HEAD WILL BE SET TO  -999.99     AT ALL NO-FLOW NODES (IBOUND=0).



                       INITIAL HEAD FOR LAYER   1
 READING ON UNIT   13 WITH FORMAT: (342E15.6)          
 # OC package for  MODFLOW-NWT, generated by Flopy.

 OUTPUT CONTROL IS SPECIFIED ONLY AT TIME STEPS FOR WHICH OUTPUT IS DESIRED
 COMPACT CELL-BY-CELL BUDGET FILES WILL BE WRITTEN
 AUXILIARY DATA WILL BE SAVED IN CELL-BY-CELL BUDGET FILES
 HEAD PRINT FORMAT CODE IS   0    DRAWDOWN PRINT FORMAT CODE IS   0
 HEADS WILL BE SAVED ON UNIT   51    DRAWDOWNS WILL BE SAVED ON UNIT    0
 # NWT package for  MODFLOW-NWT, generated by Flopy.

 NWT1 -- Newton Solver, VERSION 1.1.4, 4/01/2018
         INPUT READ FROM UNIT 32

 COMPLEX OPTION:
 DEFAULT SOLVER INPUT VALUES REFLECT STRONGLY NONLINEAR MODEL
 ***GMRES linear solver will be used***
 
   CONVERGENCE CRITERION OF   0.100000E-01 FOR HEAD SOLUTION
   AND A TOLERANCE OF   0.500000E+03 FOR FLOW SOLUTION AND 
   A MAXIMUM OF   100 OUTER ITERATIONS. 


   D-B-D REDUCTION FACTOR OF    0.850000E+00 AND 
   A D-B-D INCREASE FACTOR OF    0.100000E-04 AND 
   A D-B-D RELAXATION OF    0.000000E+00 AND 
   A MOMENTUM FACTOR OF    0.100000E+00 .


   BACKTRACKING IS ACTIVE 
   THE MAXIMUM NUMBER OF BACKTRACKS IS    50 AND 
   THE BACKTRACKING TOLERANCE IS    0.110000E+01 AND
   THE BACKTRACKING REDUCTION FACTOR IS    0.700000E+00

 GMRES -- LINEAR SOLUTION BY GMRES PACKAGE 
     adapted for HYDROTHERM by Kipp and others (2008)
     using software originally developed by Saad (1990) 32
     using algorithms described in Saad (2003)

 UPW1 -- UPSTREAM WEIGHTING FLOW PACKAGE, VERSION 1.1.4, 4/01/2018
         INPUT READ FROM UNIT 31

 # UPW package for  MODFLOW-NWT, generated by Flopy.
 No named parameters

   LAYER FLAGS:
 LAYER       LAYTYP          LAYAVG    CHANI           LAYVKA           LAYWET
 ---------------------------------------------------------------------------
    1             1             0     1.000E+00             1             0

   INTERPRETATION OF LAYER FLAGS:
                        INTERBLOCK     HORIZONTAL    DATA IN
         LAYER TYPE   TRANSMISSIVITY   ANISOTROPY   ARRAY VKA   WETTABILITY
 LAYER   (LAYTYP)        (LAYAVG)      (CHANI)     (LAYVKA)       (LAYWET)
 ---------------------------------------------------------------------------
    1   CONVERTIBLE      HARMONIC     1.000E+00    ANISOTROPY  NON-WETTABLE



              HYD. COND. ALONG ROWS FOR LAYER   1
 READING ON UNIT   31 WITH FORMAT: (342E15.6)          

  HORIZ. TO VERTICAL ANI. =   5.00000     FOR LAYER   1



                   SPECIFIC STORAGE FOR LAYER   1
 READING ON UNIT   31 WITH FORMAT: (342E15.6)          



                     SPECIFIC YIELD FOR LAYER   1
 READING ON UNIT   31 WITH FORMAT: (342E15.6)          

 WEL -- WELL PACKAGE FOR NWT VERSION 1.1.4,  4/01/2018 INPUT READ FROM UNIT   20
 # WEL package for  MODFLOW-NWT, generated by Flopy.
 No named parameters
 MAXIMUM OF  13900 ACTIVE WELLS AT ONE TIME
 No named parameters
 
 NEGATIVE PUMPING RATES WILL BE REDUCED IF HEAD 
 FALLS WITHIN THE INTERVAL PHIRAMP TIMES THE CELL 
 THICKNESS. THE VALUE SPECIFIED FOR PHIRAMP IS  0.10000E+00
 WELLS WITH REDUCED PUMPING WILL BE REPORTED TO FILE UNIT NUMBER   50


     0 Well parameters

 DRN -- DRAIN PACKAGE, VERSION 7, 5/2/2005 INPUT READ FROM UNIT   21
 # DRN package for  MODFLOW-NWT, generated by Flopy.
 No named parameters
 MAXIMUM OF  54036 ACTIVE DRAINS AT ONE TIME
 LISTS OF DRAIN CELLS WILL NOT BE PRINTED


     0 Drain parameters

 RCH -- RECHARGE PACKAGE, VERSION 7, 5/2/2005 INPUT READ FROM UNIT   19
 # RCH package for  MODFLOW-NWT, generated by Flopy.
 No named parameters
 OPTION 3 -- RECHARGE TO HIGHEST ACTIVE NODE IN EACH VERTICAL COLUMN


     0 Recharge parameters
1
                            STRESS PERIOD NO.    1, LENGTH =   1.000000    
                            -----------------------------------------------

                              NUMBER OF TIME STEPS =     1

                               MULTIPLIER FOR DELT =     1.000

                            INITIAL TIME STEP SIZE =   1.000000    

 WELL NO.  LAYER   ROW   COL   STRESS RATE         
 --------------------------------------------------
      1      1     29      2      -2.017    
      2      1     30      2      -2.017    
      3      1     31      2      -4.034    
      4      1     29      3      -2.017    
      5      1     30      3      -2.017    
      6      1     31      3      -4.034    
      7      1     29      4      -2.017    
      8      1     30      4      -2.017    
      9      1     32      4      -2.017    
     10      1     33      4      -2.017    
     11      1     34      4      -2.017    
     12      1     35      4      -2.017    
     13      1     43      4      -2.550    
     14      1     44      4      -2.550    
     15      1     45      4      -2.550    
     16      1     46      4      -2.550    
     17      1     29      5      -2.017    
     18      1     30      5      -2.017    
     19      1     32      5      -2.017    
     20      1     33      5      -2.017    
     21      1     34      5      -2.017    
     22      1     35      5      -2.017    
     23      1     43      5      -2.550    
     24      1     44      5      -2.550    
     25      1     45      5      -2.550    
     26      1     46      5      -2.550    
     27      1     29      6      -2.017    
     28      1     30      6      -2.017    
     29      1     32      6      -2.017    
     30      1     33      6      -2.017    
     31      1     34      6      -2.017    
     32      1     35      6      -2.017    
     33      1     36      6      -2.017    
     34      1     37      6      -2.017    
     35      1     40      6      -2.549    
     36      1     41      6      -2.549    
     37      1     42      6      -5.099    
     38      1     45      6      -2.550    
     39      1     46      6      -2.550    
     40      1     29      7      -2.017    
     41      1     30      7      -2.017    
     42      1     32      7      -2.017    
     43      1     33      7      -2.017    
     44      1     34      7      -2.017    
     45      1     35      7      -2.017    
     46      1     36      7      -2.017    
     47      1     37      7      -2.017    
     48      1     40      7      -2.549    
     49      1     41      7      -2.549    
     50      1     42      7      -5.099    
     51      1     45      7      -2.550    
     52      1     46      7      -2.550    
     53      1     27      8      -2.017    
     54      1     28      8      -2.017    
     55      1     29      8      -2.017    
     56      1     30      8      -2.017    
     57      1     32      8      -4.034    
     58      1     33      8      -4.034    
     59      1     34      8      -4.035    
     60      1     35      8      -4.035    
     61      1     36      8      -4.035    
     62      1     37      8      -4.035    
     63      1     40      8      -5.099    
     64      1     41      8      -5.099    
     65      1     42      8      -10.20    
     66      1     43      8     -0.5094    
     67      1     44      8     -0.5094    
     68      1     27      9      -2.017    
     69      1     28      9      -2.017    
     70      1     29      9      -2.017    
     71      1     30      9      -2.017    
     72      1     32      9      -2.017    
     73      1     33      9      -2.017    
     74      1     34      9      -2.017    
     75      1     35      9      -2.017    
     76      1     36      9      -2.017    
     77      1     37      9      -2.017    
     78      1     38      9      -2.017    
     79      1     39      9      -2.017    
     80      1     42      9      -5.099    
     81      1     43      9      -2.550    
     82      1     44      9      -2.550    
     83      1     25     10      -4.034    
     84      1     26     10      -4.034    
     85      1     32     10      -2.017    
     86      1     33     10      -2.017    
     87      1     34     10      -2.017    
     88      1     35     10      -2.017    
     89      1     36     10      -2.017    
     90      1     37     10      -2.017    
     91      1     38     10      -2.017    
     92      1     39     10      -2.017    
     93      1     42     10      -5.099    
     94      1     43     10      -2.550    
     95      1     44     10      -2.550    
     96      1     25     11      -2.017    
     97      1     26     11      -2.017    
     98      1     27     11      -2.017    
     99      1     28     11      -2.017    
    100      1     31     11     -0.4030    
    101      1     32     11      -2.017    
    102      1     33     11      -2.017    
    103      1     34     11      -2.017    
    104      1     35     11      -2.017    
    105      1     40     11      -2.549    
    106      1     41     11      -2.549    
    107      1     43     11      -3.400    
    108      1     44     11      -3.400    
    109      1     45     11      -2.550    
    110      1     46     11      -2.550    
    111      1     25     12      -2.017    
    112      1     26     12      -2.017    
    113      1     27     12      -2.017    
    114      1     28     12      -2.017    
    115      1     31     12     -0.4030    
    116      1     32     12      -2.017    
    117      1     33     12      -2.017    
    118      1     34     12      -2.017    
    119      1     35     12      -2.017    
    120      1     40     12      -2.549    
    121      1     41     12      -2.549    
    122      1     44     12      -3.400    
    123      1     45     12      -2.550    
    124      1     46     12      -2.550    
    125      1     23     13      -5.901    
    126      1     24     13      -5.901    
    127      1     25     13      -5.901    
    128      1     26     13      -5.901    
    129      1     27     13      -5.902    
    130      1     28     13      -5.902    
    131      1     31     13      -11.80    
    132      1     32     13      -5.902    
    133      1     33     13      -5.902    
    134      1     34     13      -5.903    
    135      1     35     13      -5.903    
    136      1     36     13      -5.903    
    137      1     37     13      -5.903    
    138      1     38     13      -5.903    
    139      1     39     13      -5.903    
    140      1     40     13      -2.497    
    141      1     41     13      -2.497    
    142      1     42     13      -2.497    
    143      1     43     13      -2.497    
    144      1     47     13      -2.497    
    145      1     48     13      -2.497    
    146      1     23     14      -5.901    
    147      1     24     14      -5.901    
    148      1     25     14      -5.901    
    149      1     26     14      -5.901    
    150      1     27     14      -5.902    
    151      1     28     14      -5.902    
    152      1     31     14      -11.80    
    153      1     32     14      -5.902    
    154      1     33     14      -5.902    
    155      1     34     14      -5.903    
    156      1     35     14      -5.903    
    157      1     36     14      -5.903    
    158      1     37     14      -5.903    
    159      1     38     14      -5.903    
    160      1     39     14      -5.903    
    161      1     40     14      -2.497    
    162      1     41     14      -2.497    
    163      1     42     14      -2.497    
    164      1     43     14      -2.497    
    165      1     47     14      -2.497    
    166      1     48     14      -2.497    
    167      1     21     15      -5.901    
    168      1     22     15      -5.901    
    169      1     23     15      -5.901    
    170      1     24     15      -5.901    
    171      1     27     15      -5.902    
    172      1     28     15      -5.902    
    173      1     31     15      -11.80    
    174      1     32     15      -5.902    
    175      1     33     15      -5.902    
    176      1     34     15      -5.903    
    177      1     35     15      -5.903    
    178      1     36     15      -5.903    
    179      1     37     15      -5.903    
    180      1     38     15      -11.81    
    181      1     39     15      -11.81    
    182      1     40     15      -4.994    
    183      1     41     15      -4.994    
    184      1     42     15      -4.994    
    185      1     43     15      -4.994    
    186      1     44     15      -9.989    
    187      1     45     15     -0.4895    
    188      1     46     15     -0.4895    
    189      1     47     15      -4.995    
    190      1     48     15      -4.995    
    191      1     51     15      -4.995    
    192      1     52     15      -4.995    
    193      1     21     16      -5.901    
    194      1     22     16      -5.901    
    195      1     23     16      -5.901    
    196      1     24     16      -5.901    
    197      1     27     16      -5.902    
    198      1     28     16      -5.902    
    199      1     31     16      -11.80    
    200      1     32     16      -5.902    
    201      1     33     16      -5.902    
    202      1     34     16      -5.903    
    203      1     35     16      -5.903    
    204      1     36     16      -5.903    
    205      1     37     16      -5.903    
    206      1     38     16      -5.903    
    207      1     39     16      -5.903    
    208      1     44     16     -0.4895    
    209      1     47     16      -2.497    
    210      1     48     16      -2.497    
    211      1     49     16     -0.2448    
    212      1     50     16     -0.2448    
    213      1     51     16     -0.2448    
    214      1     52     16     -0.2448    
    215      1     21     17      -11.80    
    216      1     22     17      -11.80    
    217      1     23     17      -11.80    
    218      1     24     17      -11.80    
    219      1     27     17      -11.80    
    220      1     28     17      -11.80    
    221      1     34     17      -11.81    
    222      1     35     17      -11.81    
    223      1     36     17      -11.81    
    224      1     37     17      -11.81    
    225      1     38     17      -5.903    
    226      1     39     17      -5.903    
    227      1     44     17     -0.4895    
    228      1     47     17      -2.497    
    229      1     48     17      -2.497    
    230      1     49     17     -0.2448    
    231      1     50     17     -0.2448    
    232      1     51     17     -0.2448    
    233      1     52     17     -0.2448    
    234      1     21     18      -5.901    
    235      1     22     18      -5.901    
    236      1     27     18     -0.5860    
    237      1     28     18     -0.5860    
    238      1     31     18      -11.80    
    239      1     32     18      -5.902    
    240      1     33     18      -5.902    
    241      1     34     18      -5.903    
    242      1     35     18      -5.903    
    243      1     36     18      -5.903    
    244      1     37     18      -5.903    
    245      1     38     18      -5.903    
    246      1     39     18      -5.903    
    247      1     42     18      -2.497    
    248      1     43     18      -2.497    
    249      1     47     18      -2.497    
    250      1     48     18      -2.497    
    251      1     49     18      -2.498    
    252      1     50     18      -2.498    
    253      1     21     19      -5.901    
    254      1     22     19      -5.901    
    255      1     27     19     -0.5860    
    256      1     28     19     -0.5860    
    257      1     31     19      -11.80    
    258      1     32     19      -5.902    
    259      1     33     19      -5.902    
    260      1     34     19      -5.903    
    261      1     35     19      -5.903    
    262      1     36     19      -5.903    
    263      1     37     19      -5.903    
    264      1     38     19      -5.903    
    265      1     39     19      -5.903    
    266      1     42     19      -2.497    
    267      1     43     19      -2.497    
    268      1     47     19      -2.497    
    269      1     48     19      -2.497    
    270      1     49     19      -2.498    
    271      1     50     19      -2.498    
    272      1     21     20      -5.901    
    273      1     22     20      -5.901    
    274      1     23     20      -5.901    
    275      1     24     20      -5.901    
    276      1     29     20     -0.5861    
    277      1     30     20     -0.5861    
    278      1     31     20      -7.870    
    279      1     32     20      -7.870    
    280      1     33     20      -7.870    
    281      1     34     20      -5.903    
    282      1     35     20      -5.903    
    283      1     36     20      -5.903    
    284      1     37     20      -5.903    
    285      1     38     20      -5.903    
    286      1     39     20      -5.903    
    287      1     40     20      -2.497    
    288      1     41     20      -2.497    
    289      1     47     20      -2.497    
    290      1     48     20      -2.497    
    291      1     49     20      -2.498    
    292      1     50     20      -2.498    
    293      1     53     20      -2.498    
    294      1     54     20      -2.498    
    295      1     73     20      -3.821    
    296      1     74     20      -3.821    
    297      1     21     21      -5.901    
    298      1     22     21      -5.901    
    299      1     23     21      -5.901    
    300      1     24     21      -5.901    
    301      1     29     21     -0.5861    
    302      1     30     21     -0.5861    
    303      1     31     21      -7.870    
    304      1     32     21      -7.870    
    305      1     33     21      -7.870    
    306      1     34     21      -5.903    
    307      1     35     21      -5.903    
    308      1     36     21      -5.903    
    309      1     37     21      -5.903    
    310      1     38     21      -5.903    
    311      1     39     21      -5.903    
    312      1     40     21      -2.497    
    313      1     41     21      -2.497    
    314      1     47     21      -2.497    
    315      1     48     21      -2.497    
    316      1     49     21      -2.498    
    317      1     50     21      -2.498    
    318      1     53     21      -2.498    
    319      1     54     21      -2.498    
    320      1     73     21      -3.821    
    321      1     74     21      -3.821    
    322      1     76     21      -5.096    
    323      1     77     21      -1.600    
    324      1     78     21      -1.600    
    325      1     79     21      -3.199    
    326      1     21     22      -5.901    
    327      1     22     22      -5.901    
    328      1     23     22      -5.901    
    329      1     24     22      -5.901    
    330      1     29     22      -5.902    
    331      1     30     22      -5.902    
    332      1     31     22      -5.902    
    333      1     32     22      -5.902    
    334      1     33     22      -11.80    
    335      1     34     22      -5.903    
    336      1     35     22      -5.903    
    337      1     38     22      -5.903    
    338      1     39     22      -5.903    
    339      1     40     22      -2.497    
    340      1     41     22      -2.497    
    341      1     44     22      -9.989    
    342      1     47     22      -4.995    
    343      1     48     22      -4.995    
    344      1     49     22      -4.995    
    345      1     50     22      -4.995    
    346      1     53     22      -4.996    
    347      1     54     22      -4.996    
    348      1     71     22      -7.643    
    349      1     72     22      -7.643    
    350      1     75     22      -5.096    
    351      1     76     22      -5.096    
    352      1     77     22      -1.600    
    353      1     78     22      -1.600    
    354      1     79     22      -3.199    
    355      1     21     23      -5.901    
    356      1     22     23      -5.901    
    357      1     23     23      -5.901    
    358      1     24     23      -5.901    
    359      1     29     23      -5.902    
    360      1     30     23      -5.902    
    361      1     31     23      -5.902    
    362      1     32     23      -5.902    
    363      1     33     23      -11.80    
    364      1     34     23      -5.903    
    365      1     35     23      -5.903    
    366      1     38     23      -5.903    
    367      1     39     23      -5.903    
    368      1     40     23      -2.497    
    369      1     41     23      -2.497    
    370      1     47     23      -2.497    
    371      1     48     23      -2.497    
    372      1     49     23      -2.498    
    373      1     50     23      -2.498    
    374      1     51     23      -2.498    
    375      1     52     23      -2.498    
    376      1     71     23      -3.821    
    377      1     72     23      -3.821    
    378      1     75     23      -3.822    
    379      1     76     23      -3.822    
    380      1     77     23      -1.600    
    381      1     78     23      -1.600    
    382      1     79     23      -3.199    
    383      1     80     23      -1.600    
    384      1     81     23      -1.600    
    385      1     82     23      -1.600    
    386      1     83     23      -1.600    
    387      1     21     24      -11.80    
    388      1     22     24      -11.80    
    389      1     23     24      -11.80    
    390      1     24     24      -11.80    
    391      1     25     24      -11.80    
    392      1     26     24      -11.80    
    393      1     31     24      -11.80    
    394      1     32     24      -11.80    
    395      1     33     24      -23.61    
    396      1     34     24      -11.81    
    397      1     35     24      -11.81    
    398      1     38     24      -11.81    
    399      1     39     24      -11.81    
    400      1     40     24      -4.994    
    401      1     41     24      -4.994    
    402      1     42     24      -4.994    
    403      1     43     24      -4.994    
    404      1     47     24      -2.497    
    405      1     48     24      -2.497    
    406      1     49     24      -2.498    
    407      1     50     24      -2.498    
    408      1     51     24      -2.498    
    409      1     52     24      -2.498    
    410      1     71     24      -3.821    
    411      1     72     24      -3.821    
    412      1     75     24      -3.822    
    413      1     76     24      -3.822    
    414      1     77     24      -1.600    
    415      1     78     24      -1.600    
    416      1     79     24      -3.199    
    417      1     80     24      -1.600    
    418      1     81     24      -1.600    
    419      1     82     24      -1.600    
    420      1     83     24      -1.600    
    421      1     21     25      -5.901    
    422      1     22     25      -5.901    
    423      1     23     25      -5.901    
    424      1     24     25      -5.901    
    425      1     25     25      -5.901    
    426      1     26     25      -5.901    
    427      1     31     25      -5.902    
    428      1     32     25      -5.902    
    429      1     33     25      -11.80    
    430      1     34     25      -5.903    
    431      1     35     25      -5.903    
    432      1     36     25      -5.903    
    433      1     37     25      -5.903    
    434      1     38     25     -0.5862    
    435      1     39     25     -0.5862    
    436      1     40     25      -2.497    
    437      1     41     25      -2.497    
    438      1     42     25      -2.497    
    439      1     43     25      -2.497    
    440      1     44     25      -4.994    
    441      1     49     25      -2.498    
    442      1     50     25      -2.498    
    443      1     51     25      -2.498    
    444      1     52     25      -2.498    
    445      1     55     25      -2.498    
    446      1     56     25      -2.498    
    447      1     69     25      -3.821    
    448      1     70     25      -3.821    
    449      1     71     25      -3.821    
    450      1     72     25      -3.821    
    451      1     75     25      -3.822    
    452      1     76     25      -3.822    
    453      1     79     25     -0.2133    
    454      1     80     25      -2.133    
    455      1     81     25      -2.133    
    456      1     21     26      -5.901    
    457      1     22     26      -5.901    
    458      1     23     26      -5.901    
    459      1     24     26      -5.901    
    460      1     25     26      -5.901    
    461      1     26     26      -5.901    
    462      1     31     26      -5.902    
    463      1     32     26      -5.902    
    464      1     33     26      -11.80    
    465      1     34     26      -5.903    
    466      1     35     26      -5.903    
    467      1     36     26      -5.903    
    468      1     37     26      -5.903    
    469      1     38     26     -0.5862    
    470      1     39     26     -0.5862    
    471      1     40     26      -2.497    
    472      1     41     26      -2.497    
    473      1     42     26      -2.497    
    474      1     43     26      -2.497    
    475      1     44     26      -4.994    
    476      1     49     26      -2.498    
    477      1     50     26      -2.498    
    478      1     51     26      -2.498    
    479      1     52     26      -2.498    
    480      1     55     26      -2.498    
    481      1     56     26      -2.498    
    482      1     69     26      -3.821    
    483      1     70     26      -3.821    
    484      1     71     26      -3.821    
    485      1     72     26      -3.821    
    486      1     75     26      -3.822    
    487      1     76     26      -3.822    
    488      1     79     26     -0.2133    
    489      1     80     26     -0.2133    
    490      1     81     26      -2.133    
    491      1     20     27      -16.16    
    492      1     21     27      -5.901    
    493      1     22     27      -5.901    
    494      1     25     27      -5.901    
    495      1     26     27      -5.901    
    496      1     29     27      -5.902    
    497      1     30     27      -5.902    
    498      1     31     27      -5.902    
    499      1     32     27      -5.902    
    500      1     33     27      -11.80    
    501      1     34     27      -5.903    
    502      1     35     27      -5.903    
    503      1     36     27      -5.903    
    504      1     37     27      -5.903    
    505      1     40     27      -2.497    
    506      1     41     27      -2.497    
    507      1     42     27      -2.497    
    508      1     43     27      -2.497    
    509      1     45     27      -2.497    
    510      1     46     27      -2.497    
    511      1     47     27      -2.497    
    512      1     48     27      -2.497    
    513      1     51     27     -0.2448    
    514      1     52     27     -0.2448    
    515      1     55     27      -2.498    
    516      1     56     27      -2.498    
    517      1     66     27      -3.821    
    518      1     67     27      -3.821    
    519      1     68     27      -7.642    
    520      1     71     27      -3.821    
    521      1     72     27      -3.821    
    522      1     75     27      -3.822    
    523      1     76     27      -3.822    
    524      1     81     27      -3.200    
    525      1     82     27      -1.600    
    526      1     83     27      -1.600    
    527      1     84     27      -3.200    
    528      1     85     27      -3.200    
    529      1     20     28      -16.16    
    530      1     21     28      -5.901    
    531      1     22     28      -5.901    
    532      1     25     28      -5.901    
    533      1     26     28      -5.901    
    534      1     29     28      -5.902    
    535      1     30     28      -5.902    
    536      1     31     28      -5.902    
    537      1     32     28      -5.902    
    538      1     33     28      -11.80    
    539      1     34     28      -5.903    
    540      1     35     28      -5.903    
    541      1     36     28      -5.903    
    542      1     37     28      -5.903    
    543      1     40     28      -2.497    
    544      1     41     28      -2.497    
    545      1     42     28      -2.497    
    546      1     43     28      -2.497    
    547      1     45     28      -2.497    
    548      1     46     28      -2.497    
    549      1     47     28      -2.497    
    550      1     48     28      -2.497    
    551      1     51     28     -0.2448    
    552      1     52     28     -0.2448    
    553      1     55     28      -2.498    
    554      1     56     28      -2.498    
    555      1     66     28      -3.821    
    556      1     67     28      -3.821    
    557      1     68     28      -7.642    
    558      1     71     28      -3.821    
    559      1     72     28      -3.821    
    560      1     75     28      -3.822    
    561      1     76     28      -3.822    
    562      1     81     28      -3.200    
    563      1     82     28      -1.600    
    564      1     83     28      -1.600    
    565      1     84     28      -1.600    
    566      1     85     28      -1.600    
    567      1     86     28      -1.600    
    568      1     87     28      -1.600    
    569      1     20     29      -10.78    
    570      1     21     29      -7.868    
    571      1     22     29      -7.868    
    572      1     29     29      -5.902    
    573      1     30     29      -5.902    
    574      1     31     29      -5.902    
    575      1     32     29      -5.902    
    576      1     33     29      -11.80    
    577      1     38     29      -5.903    
    578      1     39     29      -5.903    
    579      1     40     29      -2.497    
    580      1     41     29      -2.497    
    581      1     42     29      -2.497    
    582      1     43     29      -2.497    
    583      1     44     29      -4.994    
    584      1     45     29      -2.497    
    585      1     46     29      -2.497    
    586      1     47     29      -2.497    
    587      1     48     29      -2.497    
    588      1     49     29     -0.2448    
    589      1     50     29     -0.2448    
    590      1     51     29     -0.4895    
    591      1     52     29     -0.4895    
    592      1     55     29     -0.4896    
    593      1     56     29     -0.4896    
    594      1     66     29      -7.642    
    595      1     67     29      -7.642    
    596      1     68     29      -15.28    
    597      1     77     29      -3.199    
    598      1     78     29      -3.199    
    599      1     79     29      -3.199    
    600      1     80     29      -3.199    
    601      1     81     29      -6.399    
    602      1     82     29      -3.200    
    603      1     83     29      -3.200    
    604      1     84     29      -1.600    
    605      1     85     29      -1.600    
    606      1     86     29      -1.600    
    607      1     87     29      -1.600    
    608      1     20     30      -10.78    
    609      1     21     30      -10.78    
    610      1     22     30      -7.868    
    611      1     29     30      -5.902    
    612      1     30     30      -5.902    
    613      1     31     30      -5.902    
    614      1     32     30      -5.902    
    615      1     33     30      -11.80    
    616      1     38     30      -5.903    
    617      1     39     30      -5.903    
    618      1     40     30      -2.497    
    619      1     41     30      -2.497    
    620      1     42     30      -2.497    
    621      1     43     30      -2.497    
    622      1     44     30      -4.994    
    623      1     45     30      -2.497    
    624      1     46     30      -2.497    
    625      1     47     30      -2.497    
    626      1     48     30      -2.497    
    627      1     49     30     -0.2448    
    628      1     50     30     -0.2448    
    629      1     53     30     -0.2583    
    630      1     54     30     -0.2583    
    631      1     66     30      -4.707    
    632      1     67     30      -4.707    
    633      1     68     30      -9.415    
    634      1     69     30      -4.708    
    635      1     70     30      -4.708    
    636      1     75     30      -4.708    
    637      1     76     30      -4.708    
    638      1     77     30      -3.800    
    639      1     78     30      -3.800    
    640      1     79     30      -3.801    
    641      1     80     30      -3.801    
    642      1     81     30      -7.602    
    643      1     82     30      -3.801    
    644      1     83     30      -3.801    
    645      1     86     30      -3.801    
    646      1     87     30      -3.801    
    647      1     20     31      -19.53    
    648      1     21     31      -19.53    
    649      1     22     31      -29.93    
    650      1     25     31      -14.96    
    651      1     26     31      -14.96    
    652      1     31     31      -14.97    
    653      1     32     31      -14.97    
    654      1     33     31      -29.93    
    655      1     38     31      -14.97    
    656      1     39     31      -14.97    
    657      1     40     31      -5.719    
    658      1     41     31      -5.719    
    659      1     42     31      -5.719    
    660      1     43     31      -5.719    
    661      1     44     31      -11.44    
    662      1     45     31      -5.720    
    663      1     46     31      -5.720    
    664      1     47     31      -5.720    
    665      1     48     31      -5.720    
    666      1     49     31      -5.720    
    667      1     50     31      -5.720    
    668      1     53     31     -0.2583    
    669      1     54     31     -0.2583    
    670      1     66     31      -4.707    
    671      1     67     31      -4.707    
    672      1     68     31      -9.415    
    673      1     69     31      -4.708    
    674      1     70     31      -4.708    
    675      1     75     31      -4.708    
    676      1     76     31      -4.708    
    677      1     77     31      -3.800    
    678      1     78     31      -3.800    
    679      1     79     31      -3.801    
    680      1     80     31      -3.801    
    681      1     81     31      -7.602    
    682      1     82     31      -3.801    
    683      1     83     31      -3.801    
    684      1     86     31      -3.801    
    685      1     87     31      -3.801    
    686      1     22     32      -14.96    
    687      1     23     32      -7.482    
    688      1     24     32      -7.482    
    689      1     25     32      -7.482    
    690      1     26     32      -7.482    
    691      1     31     32      -7.483    
    692      1     32     32      -7.483    
    693      1     33     32      -14.97    
    694      1     36     32      -7.484    
    695      1     37     32      -7.484    
    696      1     38     32      -7.485    
    697      1     39     32      -7.485    
    698      1     40     32      -2.860    
    699      1     41     32      -2.860    
    700      1     42     32      -2.860    
    701      1     43     32      -2.860    
    702      1     44     32      -3.813    
    703      1     45     32      -3.813    
    704      1     46     32      -3.813    
    705      1     47     32      -2.860    
    706      1     48     32      -2.860    
    707      1     49     32      -2.860    
    708      1     50     32      -2.860    
    709      1     55     32     -0.2583    
    710      1     56     32     -0.2583    
    711      1     57     32      -5.721    
    712      1     66     32      -4.707    
    713      1     67     32      -4.707    
    714      1     68     32      -9.415    
    715      1     69     32      -4.708    
    716      1     70     32      -4.708    
    717      1     75     32      -4.708    
    718      1     76     32      -4.708    
    719      1     77     32      -3.800    
    720      1     78     32      -3.800    
    721      1     79     32     -0.3725    
    722      1     80     32     -0.3725    
    723      1     81     32     -0.7450    
    724      1     82     32     -0.3725    
    725      1     83     32     -0.3725    
    726      1     84     32      -3.801    
    727      1     85     32      -3.801    
    728      1     86     32      -3.801    
    729      1     87     32      -3.801    
    730      1     22     33      -14.96    
    731      1     23     33      -7.482    
    732      1     24     33      -7.482    
    733      1     25     33      -7.482    
    734      1     26     33      -7.482    
    735      1     31     33      -7.483    
    736      1     32     33      -7.483    
    737      1     33     33      -14.97    
    738      1     36     33      -7.484    
    739      1     37     33      -7.484    
    740      1     38     33      -7.485    
    741      1     39     33      -7.485    
    742      1     40     33      -2.860    
    743      1     41     33      -2.860    
    744      1     42     33      -2.860    
    745      1     43     33      -2.860    
    746      1     44     33      -3.813    
    747      1     45     33      -3.813    
    748      1     46     33      -3.813    
    749      1     47     33      -2.860    
    750      1     48     33      -2.860    
    751      1     49     33      -2.860    
    752      1     50     33      -2.860    
    753      1     55     33     -0.2583    
    754      1     56     33     -0.2583    
    755      1     57     33      -5.721    
    756      1     66     33      -4.707    
    757      1     67     33      -4.707    
    758      1     68     33      -9.415    
    759      1     69     33      -4.708    
    760      1     70     33      -4.708    
    761      1     75     33      -4.708    
    762      1     76     33      -4.708    
    763      1     77     33      -3.800    
    764      1     78     33      -3.800    
    765      1     79     33     -0.3725    
    766      1     80     33     -0.3725    
    767      1     81     33     -0.7450    
    768      1     82     33     -0.3725    
    769      1     83     33     -0.3725    
    770      1     84     33      -3.801    
    771      1     85     33      -3.801    
    772      1     86     33      -3.801    
    773      1     87     33      -3.801    
    774      1     23     34      -7.482    
    775      1     24     34      -7.482    
    776      1     25     34      -7.482    
    777      1     26     34      -7.482    
    778      1     31     34      -7.483    
    779      1     32     34      -7.483    
    780      1     33     34      -14.97    
    781      1     36     34      -7.484    
    782      1     37     34      -7.484    
    783      1     38     34      -7.485    
    784      1     39     34      -7.485    
    785      1     40     34      -2.860    
    786      1     41     34      -2.860    
    787      1     42     34      -2.860    
    788      1     43     34      -2.860    
    789      1     44     34      -2.860    
    790      1     45     34      -2.860    
    791      1     49     34      -2.860    
    792      1     50     34      -2.860    
    793      1     51     34     -0.2583    
    794      1     52     34     -0.2583    
    795      1     57     34     -0.5166    
    796      1     62     34      -4.707    
    797      1     63     34      -4.707    
    798      1     64     34      -4.707    
    799      1     65     34      -4.707    
    800      1     66     34      -4.707    
    801      1     67     34      -4.707    
    802      1     68     34      -9.415    
    803      1     69     34      -4.708    
    804      1     70     34      -4.708    
    805      1     71     34     -0.4689    
    806      1     72     34     -0.4689    
    807      1     75     34      -4.708    
    808      1     76     34      -4.708    
    809      1     79     34      -3.801    
    810      1     80     34      -3.801    
    811      1     81     34      -7.602    
    812      1     82     34      -3.801    
    813      1     83     34      -3.801    
    814      1     84     34      -3.801    
    815      1     85     34      -3.801    
    816      1     23     35      -7.482    
    817      1     24     35      -7.482    
    818      1     25     35      -7.482    
    819      1     26     35      -7.482    
    820      1     31     35      -7.483    
    821      1     32     35      -7.483    
    822      1     33     35      -14.97    
    823      1     36     35      -7.484    
    824      1     37     35      -7.484    
    825      1     38     35      -7.485    
    826      1     39     35      -7.485    
    827      1     40     35      -2.860    
    828      1     41     35      -2.860    
    829      1     42     35      -2.860    
    830      1     43     35      -2.860    
    831      1     44     35      -2.860    
    832      1     45     35      -2.860    
    833      1     49     35      -2.860    
    834      1     50     35      -2.860    
    835      1     51     35     -0.2583    
    836      1     52     35     -0.2583    
    837      1     57     35     -0.5166    
    838      1     62     35      -4.707    
    839      1     63     35      -4.707    
    840      1     64     35      -4.707    
    841      1     65     35      -4.707    
    842      1     66     35      -4.707    
    843      1     67     35      -4.707    
    844      1     68     35      -9.415    
    845      1     69     35      -4.708    
    846      1     70     35      -4.708    
    847      1     71     35     -0.4689    
    848      1     72     35     -0.4689    
    849      1     75     35      -4.708    
    850      1     76     35      -4.708    
    851      1     79     35      -3.801    
    852      1     80     35      -3.801    
    853      1     81     35      -7.602    
    854      1     82     35      -3.801    
    855      1     83     35      -3.801    
    856      1     84     35      -3.801    
    857      1     85     35      -3.801    
    858      1     23     36      -7.482    
    859      1     24     36      -7.482    
    860      1     25     36      -7.482    
    861      1     26     36      -7.482    
    862      1     27     36      -7.483    
    863      1     28     36      -7.483    
    864      1     31     36      -7.483    
    865      1     32     36      -7.483    
    866      1     33     36      -14.97    
    867      1     36     36      -7.484    
    868      1     37     36      -7.484    
    869      1     38     36      -7.485    
    870      1     39     36      -7.485    
    871      1     40     36      -2.860    
    872      1     41     36      -2.860    
    873      1     42     36      -2.860    
    874      1     43     36      -2.860    
    875      1     44     36      -2.860    
    876      1     45     36      -2.860    
    877      1     46     36      -5.720    
    878      1     49     36      -2.860    
    879      1     50     36      -2.860    
    880      1     53     36     -0.2583    
    881      1     54     36     -0.2583    
    882      1     55     36      -2.861    
    883      1     56     36      -2.861    
    884      1     57     36      -5.721    
    885      1     58     36      -9.413    
    886      1     59     36      -9.413    
    887      1     60     36      -9.413    
    888      1     61     36      -9.413    
    889      1     62     36      -9.413    
    890      1     63     36      -9.413    
    891      1     64     36      -9.414    
    892      1     65     36      -9.414    
    893      1     66     36      -9.414    
    894      1     67     36      -9.414    
    895      1     68     36      -9.415    
    896      1     69     36      -9.415    
    897      1     71     36      -9.416    
    898      1     72     36      -9.416    
    899      1     75     36      -9.416    
    900      1     76     36      -9.416    
    901      1     77     36     -0.7449    
    902      1     78     36     -0.7449    
    903      1     79     36      -7.601    
    904      1     80     36      -7.601    
    905      1     81     36      -15.20    
    906      1     82     36      -7.602    
    907      1     83     36      -7.602    
    908      1     23     37      -7.482    
    909      1     24     37      -7.482    
    910      1     25     37      -7.482    
    911      1     26     37      -7.482    
    912      1     27     37      -7.483    
    913      1     28     37      -7.483    
    914      1     31     37      -7.483    
    915      1     32     37      -7.483    
    916      1     33     37      -14.97    
    917      1     36     37      -7.484    
    918      1     37     37      -7.484    
    919      1     38     37      -7.485    
    920      1     39     37      -7.485    
    921      1     40     37      -2.860    
    922      1     41     37      -2.860    
    923      1     42     37      -2.860    
    924      1     43     37      -2.860    
    925      1     44     37      -2.860    
    926      1     45     37      -2.860    
    927      1     46     37      -5.720    
    928      1     49     37      -2.860    
    929      1     50     37      -2.860    
    930      1     53     37     -0.2583    
    931      1     54     37     -0.2583    
    932      1     55     37      -2.861    
    933      1     56     37      -2.861    
    934      1     57     37      -5.721    
    935      1     58     37      -4.706    
    936      1     59     37      -4.706    
    937      1     60     37      -4.706    
    938      1     61     37      -4.706    
    939      1     62     37      -4.707    
    940      1     63     37      -4.707    
    941      1     68     37      -4.707    
    942      1     69     37      -4.707    
    943      1     70     37      -9.415    
    944      1     71     37      -4.708    
    945      1     72     37      -4.708    
    946      1     77     37      -3.800    
    947      1     78     37      -3.800    
    948      1     79     37      -3.801    
    949      1     80     37      -3.801    
    950      1     81     37      -7.602    
    951      1     82     37      -3.801    
    952      1     83     37      -3.801    
    953      1     23     38      -7.482    
    954      1     24     38      -7.482    
    955      1     25     38      -14.96    
    956      1     26     38      -14.96    
    957      1     27     38      -14.97    
    958      1     28     38      -14.97    
    959      1     31     38      -1.480    
    960      1     32     38      -1.480    
    961      1     33     38      -29.93    
    962      1     36     38      -14.97    
    963      1     37     38      -14.97    
    964      1     40     38      -5.719    
    965      1     41     38      -5.719    
    966      1     42     38      -5.719    
    967      1     43     38      -5.719    
    968      1     44     38      -5.720    
    969      1     45     38      -5.720    
    970      1     49     38     -0.5165    
    971      1     50     38     -0.5165    
    972      1     53     38      -5.721    
    973      1     54     38      -5.721    
    974      1     55     38      -5.721    
    975      1     56     38      -5.721    
    976      1     57     38      -11.44    
    977      1     58     38      -4.706    
    978      1     59     38      -4.706    
    979      1     60     38      -4.706    
    980      1     61     38      -4.706    
    981      1     62     38      -4.707    
    982      1     63     38      -4.707    
    983      1     68     38      -4.707    
    984      1     69     38      -4.707    
    985      1     70     38      -9.415    
    986      1     71     38      -4.708    
    987      1     72     38      -4.708    
    988      1     77     38      -3.800    
    989      1     78     38      -3.800    
    990      1     79     38      -3.801    
    991      1     80     38      -3.801    
    992      1     81     38      -7.602    
    993      1     82     38      -3.801    
    994      1     83     38      -3.801    
    995      1     23     39      -7.482    
    996      1     24     39      -7.482    
    997      1     25     39      -7.482    
    998      1     26     39      -7.482    
    999      1     27     39      -7.483    
   1000      1     28     39      -7.483    
   1001      1     33     39      -14.97    
   1002      1     36     39     -0.7402    
   1003      1     37     39     -0.7402    
   1004      1     40     39      -2.860    
   1005      1     41     39      -2.860    
   1006      1     42     39      -2.860    
   1007      1     43     39      -2.860    
   1008      1     44     39      -2.860    
   1009      1     45     39      -2.860    
   1010      1     46     39      -5.720    
   1011      1     47     39     -0.2583    
   1012      1     48     39     -0.2583    
   1013      1     51     39     -0.2583    
   1014      1     52     39     -0.2583    
   1015      1     57     39      -5.721    
   1016      1     58     39      -4.706    
   1017      1     59     39      -4.706    
   1018      1     60     39      -4.706    
   1019      1     61     39      -4.706    
   1020      1     62     39      -4.707    
   1021      1     63     39      -4.707    
   1022      1     64     39      -4.707    
   1023      1     65     39      -4.707    
   1024      1     70     39      -9.415    
   1025      1     71     39      -4.708    
   1026      1     72     39      -4.708    
   1027      1     75     39      -4.708    
   1028      1     76     39      -4.708    
   1029      1     81     39      -7.602    
   1030      1     82     39      -3.801    
   1031      1     83     39      -3.801    
   1032      1     23     40      -14.96    
   1033      1     24     40      -14.96    
   1034      1     25     40      -7.482    
   1035      1     26     40      -7.482    
   1036      1     27     40      -7.483    
   1037      1     28     40      -7.483    
   1038      1     33     40      -14.97    
   1039      1     36     40     -0.7402    
   1040      1     37     40     -0.7402    
   1041      1     40     40      -2.860    
   1042      1     41     40      -2.860    
   1043      1     42     40      -2.860    
   1044      1     43     40      -2.860    
   1045      1     44     40      -2.860    
   1046      1     45     40      -2.860    
   1047      1     46     40      -5.720    
   1048      1     47     40     -0.2583    
   1049      1     48     40     -0.2583    
   1050      1     51     40     -0.2583    
   1051      1     52     40     -0.2583    
   1052      1     57     40      -5.721    
   1053      1     58     40      -4.706    
   1054      1     59     40      -4.706    
   1055      1     60     40      -4.706    
   1056      1     61     40      -4.706    
   1057      1     62     40      -4.707    
   1058      1     63     40      -4.707    
   1059      1     64     40      -4.707    
   1060      1     65     40      -4.707    
   1061      1     70     40      -9.415    
   1062      1     71     40      -4.708    
   1063      1     72     40      -4.708    
   1064      1     75     40      -4.708    
   1065      1     76     40      -4.708    
   1066      1     81     40      -7.602    
   1067      1     82     40      -3.801    
   1068      1     83     40      -3.801    
   1069      1     23     41      -7.482    
   1070      1     24     41      -7.482    
   1071      1     33     41     -0.9868    
   1072      1     36     41      -7.484    
   1073      1     37     41      -7.484    
   1074      1     38     41      -7.485    
   1075      1     39     41      -7.485    
   1076      1     40     41      -2.860    
   1077      1     41     41      -2.860    
   1078      1     42     41      -2.860    
   1079      1     43     41      -2.860    
   1080      1     44     41      -2.860    
   1081      1     45     41      -2.860    
   1082      1     46     41      -5.720    
   1083      1     49     41     -0.2583    
   1084      1     50     41     -0.2583    
   1085      1     51     41      -2.860    
   1086      1     52     41      -2.860    
   1087      1     55     41      -2.861    
   1088      1     56     41      -2.861    
   1089      1     57     41      -5.721    
   1090      1     58     41      -4.706    
   1091      1     59     41      -4.706    
   1092      1     60     41      -4.706    
   1093      1     61     41      -4.706    
   1094      1     62     41      -4.707    
   1095      1     63     41      -4.707    
   1096      1     70     41      -9.415    
   1097      1     71     41      -4.708    
   1098      1     72     41      -4.708    
   1099      1     75     41     -0.4689    
   1100      1     76     41     -0.4689    
   1101      1     77     41      -3.800    
   1102      1     78     41      -3.800    
   1103      1     79     41      -3.801    
   1104      1     80     41      -3.801    
   1105      1     81     41      -7.602    
   1106      1     82     41      -3.801    
   1107      1     83     41      -3.801    
   1108      1     23     42      -7.482    
   1109      1     24     42      -7.482    
   1110      1     33     42     -0.9868    
   1111      1     34     42     -0.9868    
   1112      1     36     42      -7.484    
   1113      1     37     42      -7.484    
   1114      1     38     42      -7.485    
   1115      1     39     42      -7.485    
   1116      1     40     42      -2.860    
   1117      1     41     42      -2.860    
   1118      1     42     42      -2.860    
   1119      1     43     42      -2.860    
   1120      1     44     42      -2.860    
   1121      1     45     42      -2.860    
   1122      1     46     42      -5.720    
   1123      1     49     42     -0.2583    
   1124      1     50     42     -0.2583    
   1125      1     51     42      -2.860    
   1126      1     52     42      -2.860    
   1127      1     55     42      -2.861    
   1128      1     56     42      -2.861    
   1129      1     57     42      -5.721    
   1130      1     58     42      -4.706    
   1131      1     59     42      -4.706    
   1132      1     60     42      -4.706    
   1133      1     61     42      -4.706    
   1134      1     62     42      -4.707    
   1135      1     63     42      -4.707    
   1136      1     70     42      -9.415    
   1137      1     71     42      -4.708    
   1138      1     72     42      -4.708    
   1139      1     75     42     -0.4689    
   1140      1     76     42     -0.4689    
   1141      1     77     42      -3.800    
   1142      1     78     42      -3.800    
   1143      1     79     42      -3.801    
   1144      1     80     42      -3.801    
   1145      1     81     42      -7.602    
   1146      1     82     42      -3.801    
   1147      1     83     42      -3.801    
   1148      1     22     43      -14.96    
   1149      1     23     43      -7.482    
   1150      1     24     43      -7.482    
   1151      1     25     43      -7.482    
   1152      1     26     43      -7.482    
   1153      1     27     43      -7.483    
   1154      1     28     43      -7.483    
   1155      1     29     43      -7.483    
   1156      1     30     43      -7.483    
   1157      1     36     43      -7.484    
   1158      1     37     43      -7.484    
   1159      1     38     43      -7.485    
   1160      1     39     43      -7.485    
   1161      1     40     43      -2.860    
   1162      1     41     43      -2.860    
   1163      1     42     43      -2.860    
   1164      1     43     43      -2.860    
   1165      1     44     43      -2.860    
   1166      1     45     43      -2.860    
   1167      1     46     43     -0.5165    
   1168      1     49     43      -2.860    
   1169      1     50     43      -2.860    
   1170      1     55     43      -2.861    
   1171      1     56     43      -2.861    
   1172      1     57     43      -5.721    
   1173      1     58     43      -4.706    
   1174      1     59     43      -4.706    
   1175      1     60     43      -4.706    
   1176      1     61     43      -4.706    
   1177      1     62     43      -4.707    
   1178      1     63     43      -4.707    
   1179      1     64     43      -4.707    
   1180      1     65     43      -4.707    
   1181      1     66     43      -9.414    
   1182      1     67     43      -9.414    
   1183      1     68     43      -9.415    
   1184      1     69     43      -9.415    
   1185      1     71     43     -0.9378    
   1186      1     72     43     -0.9378    
   1187      1     77     43      -7.601    
   1188      1     78     43      -7.601    
   1189      1     79     43      -7.601    
   1190      1     80     43      -7.601    
   1191      1     82     43      -7.602    
   1192      1     83     43      -7.602    
   1193      1     84     43      -7.602    
   1194      1     85     43      -7.602    
   1195      1     22     44      -14.96    
   1196      1     23     44      -7.482    
   1197      1     24     44      -7.482    
   1198      1     25     44      -7.482    
   1199      1     26     44      -7.482    
   1200      1     27     44      -7.483    
   1201      1     28     44      -7.483    
   1202      1     29     44      -7.483    
   1203      1     30     44      -7.483    
   1204      1     36     44      -7.484    
   1205      1     37     44      -7.484    
   1206      1     38     44      -7.485    
   1207      1     39     44      -7.485    
   1208      1     40     44      -2.860    
   1209      1     41     44      -2.860    
   1210      1     42     44      -2.860    
   1211      1     43     44      -2.860    
   1212      1     44     44      -2.860    
   1213      1     45     44      -2.860    
   1214      1     46     44     -0.5165    
   1215      1     49     44      -2.860    
   1216      1     50     44      -2.860    
   1217      1     55     44      -2.861    
   1218      1     56     44      -2.861    
   1219      1     57     44      -5.721    
   1220      1     58     44      -4.706    
   1221      1     59     44      -4.706    
   1222      1     60     44      -4.706    
   1223      1     61     44      -4.706    
   1224      1     62     44      -4.707    
   1225      1     63     44      -4.707    
   1226      1     64     44      -4.707    
   1227      1     65     44      -4.707    
   1228      1     73     44      -4.708    
   1229      1     74     44      -4.708    
   1230      1     75     44      -4.708    
   1231      1     76     44      -4.708    
   1232      1     77     44      -3.800    
   1233      1     78     44      -3.800    
   1234      1     79     44      -3.801    
   1235      1     80     44      -3.801    
   1236      1     81     44      -7.602    
   1237      1     82     44      -3.801    
   1238      1     83     44      -3.801    
   1239      1     84     44      -3.801    
   1240      1     85     44      -3.801    
   1241      1     86     44      -3.801    
   1242      1     87     44      -3.801    
   1243      1     22     45      -14.96    
   1244      1     23     45      -7.482    
   1245      1     24     45      -7.482    
   1246      1     25     45      -7.482    
   1247      1     26     45      -7.482    
   1248      1     27     45      -7.483    
   1249      1     28     45      -7.483    
   1250      1     29     45      -7.483    
   1251      1     30     45      -7.483    
   1252      1     31     45      -14.97    
   1253      1     32     45      -14.97    
   1254      1     35     45      -2.961    
   1255      1     36     45      -14.97    
   1256      1     37     45      -14.97    
   1257      1     38     45      -14.97    
   1258      1     39     45      -14.97    
   1259      1     40     45      -5.719    
   1260      1     41     45      -5.719    
   1261      1     42     45      -5.719    
   1262      1     43     45      -5.719    
   1263      1     44     45      -5.720    
   1264      1     45     45      -5.720    
   1265      1     53     45      -5.721    
   1266      1     54     45      -5.721    
   1267      1     57     45      -5.721    
   1268      1     58     45      -5.721    
   1269      1     59     45      -18.83    
   1270      1     60     45      -9.413    
   1271      1     61     45      -9.413    
   1272      1     62     45      -9.413    
   1273      1     63     45      -9.413    
   1274      1     64     45      -9.414    
   1275      1     65     45      -9.414    
   1276      1     73     45      -4.708    
   1277      1     74     45      -4.708    
   1278      1     75     45      -4.708    
   1279      1     76     45      -4.708    
   1280      1     77     45      -3.800    
   1281      1     78     45      -3.800    
   1282      1     79     45      -3.801    
   1283      1     80     45      -3.801    
   1284      1     81     45      -7.602    
   1285      1     82     45      -3.801    
   1286      1     83     45      -3.801    
   1287      1     84     45      -3.801    
   1288      1     85     45      -3.801    
   1289      1     86     45      -3.801    
   1290      1     87     45      -3.801    
   1291      1     22     46      -14.96    
   1292      1     23     46      -7.482    
   1293      1     24     46      -7.482    
   1294      1     25     46      -7.482    
   1295      1     26     46      -7.482    
   1296      1     27     46      -7.483    
   1297      1     28     46      -7.483    
   1298      1     29     46      -7.483    
   1299      1     30     46      -7.483    
   1300      1     31     46      -7.483    
   1301      1     32     46      -7.483    
   1302      1     33     46      -7.484    
   1303      1     34     46      -7.484    
   1304      1     36     46      -7.484    
   1305      1     37     46      -7.484    
   1306      1     38     46      -7.485    
   1307      1     39     46      -7.485    
   1308      1     40     46      -2.860    
   1309      1     41     46      -2.860    
   1310      1     42     46      -2.860    
   1311      1     43     46      -2.860    
   1312      1     47     46     -0.2583    
   1313      1     48     46     -0.2583    
   1314      1     49     46     -0.2583    
   1315      1     50     46     -0.2583    
   1316      1     51     46      -2.860    
   1317      1     52     46      -2.860    
   1318      1     53     46      -2.860    
   1319      1     54     46      -2.860    
   1320      1     55     46      -2.861    
   1321      1     56     46      -2.861    
   1322      1     57     46      -2.861    
   1323      1     58     46      -2.861    
   1324      1     59     46      -9.413    
   1325      1     60     46      -4.706    
   1326      1     61     46      -4.706    
   1327      1     62     46      -4.707    
   1328      1     63     46      -4.707    
   1329      1     64     46      -4.707    
   1330      1     65     46      -4.707    
   1331      1     66     46      -4.707    
   1332      1     67     46      -4.707    
   1333      1     73     46      -4.708    
   1334      1     74     46      -4.708    
   1335      1     75     46      -4.708    
   1336      1     76     46      -4.708    
   1337      1     77     46      -3.800    
   1338      1     78     46      -3.800    
   1339      1     79     46      -3.801    
   1340      1     80     46      -3.801    
   1341      1     81     46      -7.602    
   1342      1     82     46      -3.801    
   1343      1     83     46      -3.801    
   1344      1     84     46      -3.801    
   1345      1     85     46      -3.801    
   1346      1     88     46      -3.801    
   1347      1     89     46      -3.801    
   1348      1     20     47      -19.53    
   1349      1     21     47      -19.53    
   1350      1     22     47      -29.93    
   1351      1     23     47      -14.96    
   1352      1     24     47      -14.96    
   1353      1     25     47      -14.96    
   1354      1     26     47      -14.96    
   1355      1     27     47      -14.97    
   1356      1     28     47      -14.97    
   1357      1     29     47      -14.97    
   1358      1     30     47      -14.97    
   1359      1     31     47      -7.483    
   1360      1     32     47      -7.483    
   1361      1     33     47      -7.484    
   1362      1     34     47      -7.484    
   1363      1     36     47      -7.484    
   1364      1     37     47      -7.484    
   1365      1     38     47      -7.485    
   1366      1     39     47      -7.485    
   1367      1     40     47      -2.860    
   1368      1     41     47      -2.860    
   1369      1     42     47      -2.860    
   1370      1     43     47      -2.860    
   1371      1     47     47     -0.2583    
   1372      1     48     47     -0.2583    
   1373      1     49     47     -0.2583    
   1374      1     50     47     -0.2583    
   1375      1     51     47      -2.860    
   1376      1     52     47      -2.860    
   1377      1     53     47      -2.860    
   1378      1     54     47      -2.860    
   1379      1     55     47      -2.861    
   1380      1     56     47      -2.861    
   1381      1     57     47      -2.861    
   1382      1     58     47      -2.861    
   1383      1     59     47      -9.413    
   1384      1     60     47      -4.706    
   1385      1     61     47      -4.706    
   1386      1     62     47      -4.707    
   1387      1     63     47      -4.707    
   1388      1     64     47      -4.707    
   1389      1     65     47      -4.707    
   1390      1     66     47      -4.707    
   1391      1     67     47      -4.707    
   1392      1     73     47      -4.708    
   1393      1     74     47      -4.708    
   1394      1     75     47      -4.708    
   1395      1     76     47      -4.708    
   1396      1     77     47      -3.800    
   1397      1     78     47      -3.800    
   1398      1     79     47      -3.801    
   1399      1     80     47      -3.801    
   1400      1     81     47      -7.602    
   1401      1     82     47      -3.801    
   1402      1     83     47      -3.801    
   1403      1     84     47      -3.801    
   1404      1     85     47      -3.801    
   1405      1     88     47      -3.801    
   1406      1     89     47      -3.801    
   1407      1     16     48      -12.19    
   1408      1     17     48      -12.19    
   1409      1     20     48      -12.19    
   1410      1     21     48      -12.19    
   1411      1     22     48      -18.18    
   1412      1     23     48      -9.089    
   1413      1     24     48      -9.089    
   1414      1     25     48      -9.089    
   1415      1     26     48      -9.089    
   1416      1     29     48      -9.090    
   1417      1     30     48      -9.090    
   1418      1     31     48      -9.090    
   1419      1     32     48      -9.090    
   1420      1     33     48      -9.091    
   1421      1     34     48      -9.091    
   1422      1     38     48      -9.092    
   1423      1     39     48      -9.092    
   1424      1     40     48      -6.729    
   1425      1     41     48      -6.729    
   1426      1     46     48      -1.183    
   1427      1     47     48      -6.730    
   1428      1     48     48      -6.730    
   1429      1     49     48      -6.731    
   1430      1     50     48      -6.731    
   1431      1     51     48      -6.731    
   1432      1     52     48      -6.731    
   1433      1     53     48      -6.731    
   1434      1     54     48      -6.731    
   1435      1     55     48      -6.732    
   1436      1     56     48      -6.732    
   1437      1     57     48      -6.732    
   1438      1     58     48      -6.732    
   1439      1     59     48      -21.47    
   1440      1     60     48      -10.73    
   1441      1     61     48      -10.73    
   1442      1     64     48      -10.74    
   1443      1     65     48      -10.74    
   1444      1     66     48      -10.74    
   1445      1     67     48      -10.74    
   1446      1     68     48      -10.74    
   1447      1     69     48      -10.74    
   1448      1     73     48      -10.74    
   1449      1     74     48      -10.74    
   1450      1     79     48      -8.073    
   1451      1     80     48      -8.073    
   1452      1     81     48      -10.76    
   1453      1     82     48      -10.76    
   1454      1     83     48      -10.76    
   1455      1     84     48      -8.074    
   1456      1     85     48      -8.074    
   1457      1     88     48      -8.075    
   1458      1     89     48      -8.075    
   1459      1     16     49      -12.19    
   1460      1     17     49      -12.19    
   1461      1     20     49      -12.19    
   1462      1     21     49      -12.19    
   1463      1     22     49      -18.18    
   1464      1     23     49      -9.089    
   1465      1     24     49      -9.089    
   1466      1     25     49      -9.089    
   1467      1     26     49      -9.089    
   1468      1     29     49      -9.090    
   1469      1     30     49      -9.090    
   1470      1     31     49      -9.090    
   1471      1     32     49      -9.090    
   1472      1     33     49      -9.091    
   1473      1     34     49      -9.091    
   1474      1     38     49      -9.092    
   1475      1     39     49      -9.092    
   1476      1     40     49      -6.729    
   1477      1     41     49      -6.729    
   1478      1     46     49      -1.183    
   1479      1     47     49      -6.730    
   1480      1     48     49      -6.730    
   1481      1     49     49      -6.731    
   1482      1     50     49      -6.731    
   1483      1     51     49      -6.731    
   1484      1     52     49      -6.731    
   1485      1     53     49      -6.731    
   1486      1     54     49      -6.731    
   1487      1     55     49      -6.732    
   1488      1     56     49      -6.732    
   1489      1     57     49      -6.732    
   1490      1     58     49      -6.732    
   1491      1     59     49      -21.47    
   1492      1     60     49      -10.73    
   1493      1     61     49      -10.73    
   1494      1     64     49      -10.74    
   1495      1     65     49      -10.74    
   1496      1     66     49      -10.74    
   1497      1     67     49      -10.74    
   1498      1     68     49      -10.74    
   1499      1     69     49      -10.74    
   1500      1     73     49      -10.74    
   1501      1     74     49      -10.74    
   1502      1     79     49      -8.073    
   1503      1     80     49      -8.073    
   1504      1     81     49      -10.76    
   1505      1     82     49      -10.76    
   1506      1     83     49      -10.76    
   1507      1     84     49      -8.074    
   1508      1     85     49      -8.074    
   1509      1     88     49      -8.075    
   1510      1     89     49      -8.075    
   1511      1     16     50      -12.19    
   1512      1     17     50      -12.19    
   1513      1     20     50      -12.19    
   1514      1     21     50      -12.19    
   1515      1     22     50      -18.18    
   1516      1     23     50      -9.089    
   1517      1     24     50      -9.089    
   1518      1     25     50      -9.089    
   1519      1     26     50      -9.089    
   1520      1     29     50      -9.090    
   1521      1     30     50      -9.090    
   1522      1     31     50      -9.090    
   1523      1     32     50      -9.090    
   1524      1     33     50      -9.091    
   1525      1     34     50      -9.091    
   1526      1     35     50      -18.18    
   1527      1     38     50      -9.092    
   1528      1     39     50      -9.092    
   1529      1     40     50      -6.729    
   1530      1     41     50      -6.729    
   1531      1     42     50     -0.5915    
   1532      1     43     50     -0.5915    
   1533      1     46     50      -1.183    
   1534      1     47     50      -6.730    
   1535      1     48     50      -6.730    
   1536      1     49     50      -6.731    
   1537      1     50     50      -6.731    
   1538      1     51     50      -6.731    
   1539      1     52     50      -6.731    
   1540      1     53     50      -6.731    
   1541      1     54     50      -6.731    
   1542      1     55     50      -6.732    
   1543      1     56     50      -6.732    
   1544      1     57     50      -6.732    
   1545      1     58     50      -6.732    
   1546      1     59     50      -21.47    
   1547      1     64     50      -10.74    
   1548      1     65     50      -10.74    
   1549      1     66     50      -10.74    
   1550      1     67     50      -10.74    
   1551      1     68     50      -10.74    
   1552      1     69     50      -10.74    
   1553      1     70     50      -21.47    
   1554      1     79     50      -16.15    
   1555      1     80     50      -16.15    
   1556      1     81     50      -16.15    
   1557      1     82     50      -16.15    
   1558      1     83     50      -32.29    
   1559      1     84     50      -16.15    
   1560      1     85     50      -16.15    
   1561      1     86     50      -1.568    
   1562      1     87     50      -1.568    
   1563      1     88     50      -16.15    
   1564      1     89     50      -16.15    
   1565      1     16     51      -12.19    
   1566      1     17     51      -12.19    
   1567      1     20     51      -12.19    
   1568      1     21     51      -12.19    
   1569      1     22     51      -18.18    
   1570      1     23     51      -9.089    
   1571      1     24     51      -9.089    
   1572      1     25     51      -9.089    
   1573      1     26     51      -9.089    
   1574      1     29     51      -9.090    
   1575      1     30     51      -9.090    
   1576      1     31     51      -9.090    
   1577      1     32     51      -9.090    
   1578      1     33     51      -9.091    
   1579      1     34     51      -9.091    
   1580      1     35     51      -18.18    
   1581      1     38     51      -9.092    
   1582      1     39     51      -9.092    
   1583      1     40     51      -6.729    
   1584      1     41     51      -6.729    
   1585      1     42     51     -0.5915    
   1586      1     43     51     -0.5915    
   1587      1     46     51      -1.183    
   1588      1     47     51      -6.730    
   1589      1     48     51      -6.730    
   1590      1     49     51      -6.731    
   1591      1     50     51      -6.731    
   1592      1     51     51      -6.731    
   1593      1     52     51      -6.731    
   1594      1     53     51      -6.731    
   1595      1     54     51      -6.731    
   1596      1     55     51      -6.732    
   1597      1     56     51      -6.732    
   1598      1     57     51      -6.732    
   1599      1     58     51      -6.732    
   1600      1     59     51      -21.47    
   1601      1     64     51      -10.74    
   1602      1     65     51      -10.74    
   1603      1     66     51      -10.74    
   1604      1     67     51      -10.74    
   1605      1     68     51      -10.74    
   1606      1     69     51      -10.74    
   1607      1     70     51      -21.47    
   1608      1     74     51      -14.32    
   1609      1     75     51      -10.74    
   1610      1     76     51      -10.74    
   1611      1     77     51      -8.072    
[...]
  13518      1    108    258       333.2    
  13519      1    108    259       333.2    
  13520      1    108    260       333.2    
  13521      1    108    261       333.2    
  13522      1    109    241       333.2    
  13523      1    109    242       333.2    
  13524      1    109    243       333.2    
  13525      1    109    245       333.2    
  13526      1    109    247       333.2    
  13527      1    109    250       333.2    
  13528      1    109    252       333.2    
  13529      1    109    255       333.2    
  13530      1    109    258       333.2    
  13531      1    109    259       333.2    
  13532      1    109    260       333.2    
  13533      1    109    294       333.2    
  13534      1    109    339       333.2    
  13535      1    110    244       333.2    
  13536      1    110    245       333.2    
  13537      1    110    246       333.2    
  13538      1    110    249       333.2    
  13539      1    110    252       333.2    
  13540      1    110    255       333.2    
  13541      1    110    257       333.2    
  13542      1    110    295       333.2    
  13543      1    110    332       333.2    
  13544      1    110    333       333.2    
  13545      1    110    338       333.2    
  13546      1    111    246       333.2    
  13547      1    111    249       333.2    
  13548      1    111    252       333.2    
  13549      1    111    254       333.2    
  13550      1    111    256       333.2    
  13551      1    111    271       333.2    
  13552      1    111    285       333.2    
  13553      1    111    286       333.2    
  13554      1    111    295       333.2    
  13555      1    111    332       333.2    
  13556      1    111    338       333.2    
  13557      1    112    247       333.2    
  13558      1    112    249       333.2    
  13559      1    112    251       333.2    
  13560      1    112    252       333.2    
  13561      1    112    253       333.2    
  13562      1    112    254       333.2    
  13563      1    112    255       333.2    
  13564      1    112    271       333.2    
  13565      1    112    284       333.2    
  13566      1    112    285       333.2    
  13567      1    112    295       333.2    
  13568      1    112    333       333.2    
  13569      1    113    248       333.2    
  13570      1    113    249       333.2    
  13571      1    113    250       333.2    
  13572      1    113    255       333.2    
  13573      1    113    270       333.2    
  13574      1    113    277       333.2    
  13575      1    113    278       333.2    
  13576      1    113    283       333.2    
  13577      1    113    295       333.2    
  13578      1    113    298       333.2    
  13579      1    113    299       333.2    
  13580      1    113    322       333.2    
  13581      1    113    332       333.2    
  13582      1    114    254       333.2    
  13583      1    114    262       333.2    
  13584      1    114    263       333.2    
  13585      1    114    269       333.2    
  13586      1    114    270       333.2    
  13587      1    114    276       333.2    
  13588      1    114    283       333.2    
  13589      1    114    291       333.2    
  13590      1    114    296       333.2    
  13591      1    114    297       333.2    
  13592      1    114    298       333.2    
  13593      1    114    323       333.2    
  13594      1    114    333       333.2    
  13595      1    115    254       333.2    
  13596      1    115    261       333.2    
  13597      1    115    270       333.2    
  13598      1    115    275       333.2    
  13599      1    115    276       333.2    
  13600      1    115    283       333.2    
  13601      1    115    291       333.2    
  13602      1    115    297       333.2    
  13603      1    115    298       333.2    
  13604      1    115    304       333.2    
  13605      1    115    306       333.2    
  13606      1    115    323       333.2    
  13607      1    115    324       333.2    
  13608      1    115    333       333.2    
  13609      1    116    254       333.2    
  13610      1    116    255       333.2    
  13611      1    116    260       333.2    
  13612      1    116    261       333.2    
  13613      1    116    270       333.2    
  13614      1    116    271       333.2    
  13615      1    116    272       333.2    
  13616      1    116    273       333.2    
  13617      1    116    274       333.2    
  13618      1    116    283       333.2    
  13619      1    116    291       333.2    
  13620      1    116    298       333.2    
  13621      1    116    299       333.2    
  13622      1    116    304       333.2    
  13623      1    116    306       333.2    
  13624      1    116    325       333.2    
  13625      1    116    326       333.2    
  13626      1    117    255       333.2    
  13627      1    117    256       333.2    
  13628      1    117    257       333.2    
  13629      1    117    258       333.2    
  13630      1    117    259       333.2    
  13631      1    117    267       333.2    
  13632      1    117    268       333.2    
  13633      1    117    269       333.2    
  13634      1    117    282       333.2    
  13635      1    117    291       333.2    
  13636      1    117    299       333.2    
  13637      1    117    305       333.2    
  13638      1    117    306       333.2    
  13639      1    117    312       333.2    
  13640      1    117    313       333.2    
  13641      1    117    327       333.2    
  13642      1    118    256       333.2    
  13643      1    118    258       333.2    
  13644      1    118    267       333.2    
  13645      1    118    281       333.2    
  13646      1    118    282       333.2    
  13647      1    118    291       333.2    
  13648      1    118    298       333.2    
  13649      1    118    305       333.2    
  13650      1    118    312       333.2    
  13651      1    118    323       333.2    
  13652      1    118    327       333.2    
  13653      1    119    256       333.2    
  13654      1    119    257       333.2    
  13655      1    119    267       333.2    
  13656      1    119    281       333.2    
  13657      1    119    291       333.2    
  13658      1    119    298       333.2    
  13659      1    119    305       333.2    
  13660      1    119    312       333.2    
  13661      1    119    324       333.2    
  13662      1    119    327       333.2    
  13663      1    120    257       333.2    
  13664      1    120    260       333.2    
  13665      1    120    261       333.2    
  13666      1    120    262       333.2    
  13667      1    120    266       333.2    
  13668      1    120    267       333.2    
  13669      1    120    280       333.2    
  13670      1    120    291       333.2    
  13671      1    120    298       333.2    
  13672      1    120    300       333.2    
  13673      1    120    306       333.2    
  13674      1    120    312       333.2    
  13675      1    120    325       333.2    
  13676      1    120    326       333.2    
  13677      1    120    327       333.2    
  13678      1    121    257       333.2    
  13679      1    121    258       333.2    
  13680      1    121    259       333.2    
  13681      1    121    263       333.2    
  13682      1    121    264       333.2    
  13683      1    121    266       333.2    
  13684      1    121    270       333.2    
  13685      1    121    280       333.2    
  13686      1    121    291       333.2    
  13687      1    121    298       333.2    
  13688      1    121    299       333.2    
  13689      1    121    300       333.2    
  13690      1    121    305       333.2    
  13691      1    121    311       333.2    
  13692      1    121    312       333.2    
  13693      1    121    326       333.2    
  13694      1    121    327       333.2    
  13695      1    122    263       333.2    
  13696      1    122    265       333.2    
  13697      1    122    271       333.2    
  13698      1    122    272       333.2    
  13699      1    122    278       333.2    
  13700      1    122    279       333.2    
  13701      1    122    291       333.2    
  13702      1    122    298       333.2    
  13703      1    122    305       333.2    
  13704      1    122    311       333.2    
  13705      1    123    263       333.2    
  13706      1    123    273       333.2    
  13707      1    123    278       333.2    
  13708      1    123    291       333.2    
  13709      1    123    295       333.2    
  13710      1    123    299       333.2    
  13711      1    123    305       333.2    
  13712      1    123    310       333.2    
  13713      1    123    326       333.2    
  13714      1    124    264       333.2    
  13715      1    124    272       333.2    
  13716      1    124    274       333.2    
  13717      1    124    278       333.2    
  13718      1    124    291       333.2    
  13719      1    124    295       333.2    
  13720      1    124    300       333.2    
  13721      1    124    304       333.2    
  13722      1    124    310       333.2    
  13723      1    124    326       333.2    
  13724      1    125    265       333.2    
  13725      1    125    267       333.2    
  13726      1    125    268       333.2    
  13727      1    125    271       333.2    
  13728      1    125    274       333.2    
  13729      1    125    277       333.2    
  13730      1    125    291       333.2    
  13731      1    125    295       333.2    
  13732      1    125    300       333.2    
  13733      1    125    301       333.2    
  13734      1    125    302       333.2    
  13735      1    125    303       333.2    
  13736      1    125    304       333.2    
  13737      1    125    310       333.2    
  13738      1    125    325       333.2    
  13739      1    126    266       333.2    
  13740      1    126    267       333.2    
  13741      1    126    271       333.2    
  13742      1    126    274       333.2    
  13743      1    126    277       333.2    
  13744      1    126    291       333.2    
  13745      1    126    295       333.2    
  13746      1    126    300       333.2    
  13747      1    126    310       333.2    
  13748      1    126    312       333.2    
  13749      1    127    267       333.2    
  13750      1    127    271       333.2    
  13751      1    127    273       333.2    
  13752      1    127    277       333.2    
  13753      1    127    286       333.2    
  13754      1    127    290       333.2    
  13755      1    127    294       333.2    
  13756      1    127    299       333.2    
  13757      1    127    310       333.2    
  13758      1    127    311       333.2    
  13759      1    127    324       333.2    
  13760      1    128    267       333.2    
  13761      1    128    270       333.2    
  13762      1    128    271       333.2    
  13763      1    128    273       333.2    
  13764      1    128    276       333.2    
  13765      1    128    286       333.2    
  13766      1    128    287       333.2    
  13767      1    128    288       333.2    
  13768      1    128    290       333.2    
  13769      1    128    294       333.2    
  13770      1    128    299       333.2    
  13771      1    128    303       333.2    
  13772      1    128    309       333.2    
  13773      1    128    310       333.2    
  13774      1    128    311       333.2    
  13775      1    128    323       333.2    
  13776      1    129    268       333.2    
  13777      1    129    269       333.2    
  13778      1    129    271       333.2    
  13779      1    129    272       333.2    
  13780      1    129    273       333.2    
  13781      1    129    276       333.2    
  13782      1    129    277       333.2    
  13783      1    129    289       333.2    
  13784      1    129    290       333.2    
  13785      1    129    293       333.2    
  13786      1    129    299       333.2    
  13787      1    129    300       333.2    
  13788      1    129    301       333.2    
  13789      1    129    302       333.2    
  13790      1    129    305       333.2    
  13791      1    129    307       333.2    
  13792      1    129    308       333.2    
  13793      1    129    311       333.2    
  13794      1    130    273       333.2    
  13795      1    130    274       333.2    
  13796      1    130    276       333.2    
  13797      1    130    277       333.2    
  13798      1    130    288       333.2    
  13799      1    130    289       333.2    
  13800      1    130    290       333.2    
  13801      1    130    291       333.2    
  13802      1    130    292       333.2    
  13803      1    130    299       333.2    
  13804      1    130    303       333.2    
  13805      1    130    304       333.2    
  13806      1    130    305       333.2    
  13807      1    130    306       333.2    
  13808      1    130    310       333.2    
  13809      1    131    274       333.2    
  13810      1    131    277       333.2    
  13811      1    131    287       333.2    
  13812      1    131    289       333.2    
  13813      1    131    292       333.2    
  13814      1    131    293       333.2    
  13815      1    131    294       333.2    
  13816      1    131    299       333.2    
  13817      1    131    303       333.2    
  13818      1    131    310       333.2    
  13819      1    132    274       333.2    
  13820      1    132    276       333.2    
  13821      1    132    283       333.2    
  13822      1    132    288       333.2    
  13823      1    132    295       333.2    
  13824      1    132    296       333.2    
  13825      1    132    297       333.2    
  13826      1    132    299       333.2    
  13827      1    132    301       333.2    
  13828      1    132    302       333.2    
  13829      1    132    310       333.2    
  13830      1    133    275       333.2    
  13831      1    133    276       333.2    
  13832      1    133    283       333.2    
  13833      1    133    288       333.2    
  13834      1    133    297       333.2    
  13835      1    133    298       333.2    
  13836      1    133    300       333.2    
  13837      1    133    301       333.2    
  13838      1    133    304       333.2    
  13839      1    133    310       333.2    
  13840      1    133    317       333.2    
  13841      1    134    275       333.2    
  13842      1    134    276       333.2    
  13843      1    134    284       333.2    
  13844      1    134    289       333.2    
  13845      1    134    299       333.2    
  13846      1    134    300       333.2    
  13847      1    134    304       333.2    
  13848      1    134    310       333.2    
  13849      1    134    315       333.2    
  13850      1    134    316       333.2    
  13851      1    135    277       333.2    
  13852      1    135    278       333.2    
  13853      1    135    284       333.2    
  13854      1    135    288       333.2    
  13855      1    135    301       333.2    
  13856      1    135    302       333.2    
  13857      1    135    303       333.2    
  13858      1    135    305       333.2    
  13859      1    135    310       333.2    
  13860      1    135    313       333.2    
  13861      1    135    314       333.2    
  13862      1    136    279       333.2    
  13863      1    136    282       333.2    
  13864      1    136    285       333.2    
  13865      1    136    286       333.2    
  13866      1    136    287       333.2    
  13867      1    136    301       333.2    
  13868      1    136    304       333.2    
  13869      1    136    308       333.2    
  13870      1    136    309       333.2    
  13871      1    136    310       333.2    
  13872      1    136    312       333.2    
  13873      1    137    280       333.2    
  13874      1    137    282       333.2    
  13875      1    137    285       333.2    
  13876      1    137    302       333.2    
  13877      1    137    303       333.2    
  13878      1    137    306       333.2    
  13879      1    137    307       333.2    
  13880      1    137    309       333.2    
  13881      1    137    311       333.2    
  13882      1    138    281       333.2    
  13883      1    138    282       333.2    
  13884      1    138    284       333.2    
  13885      1    138    302       333.2    
  13886      1    138    307       333.2    
  13887      1    139    282       333.2    
  13888      1    139    283       333.2    
  13889      1    139    284       333.2    
  13890      1    139    302       333.2    
  13891      1    139    303       333.2    
  13892      1    139    305       333.2    
  13893      1    139    306       333.2    
  13894      1    140    302       333.2    
  13895      1    140    303       333.2    
  13896      1    140    304       333.2    
  13897      1    140    305       333.2    
  13898      1    140    306       333.2    
  13899      1    140    307       333.2    
  13900      1    141    302       333.2    

  13900 WELLS

  54036 DRAINS



                           RECHARGE
 READING ON UNIT   19 WITH FORMAT: (342E15.6)          
 
 SOLVING FOR HEAD 

    ------------------------------------------------
       NWT REQUIRED            2 OUTER ITERATIONS 
       AND A TOTAL OF          2 INNER ITERATIONS.
    ------------------------------------------------

 OUTPUT CONTROL FOR STRESS PERIOD    1   TIME STEP    1
    SAVE HEAD FOR ALL LAYERS

 HEAD WILL BE SAVED ON UNIT   51 AT END OF TIME STEP    1, STRESS PERIOD    1
1
  VOLUMETRIC BUDGET FOR ENTIRE MODEL AT END OF TIME STEP    1, STRESS PERIOD   1
  ------------------------------------------------------------------------------

     CUMULATIVE VOLUMES      L**3       RATES FOR THIS TIME STEP      L**3/T
     ------------------                 ------------------------

           IN:                                      IN:
           ---                                      ---
             STORAGE =     1282221.1250               STORAGE =     1282221.1250
       CONSTANT HEAD =           0.0000         CONSTANT HEAD =           0.0000
               WELLS =      529440.0625                 WELLS =      529440.0625
              DRAINS =           0.0000                DRAINS =           0.0000
            RECHARGE =      382407.7188              RECHARGE =      382407.7188

            TOTAL IN =     2194069.0000              TOTAL IN =     2194069.0000

          OUT:                                     OUT:
          ----                                     ----
             STORAGE =      538842.7500               STORAGE =      538842.7500
       CONSTANT HEAD =           0.0000         CONSTANT HEAD =           0.0000
               WELLS =      164386.0000                 WELLS =      164386.0000
              DRAINS =     1487888.5000                DRAINS =     1487888.5000
            RECHARGE =           0.0000              RECHARGE =           0.0000

           TOTAL OUT =     2191117.2500             TOTAL OUT =     2191117.2500

            IN - OUT =        2951.7500              IN - OUT =        2951.7500

 PERCENT DISCREPANCY =           0.13     PERCENT DISCREPANCY =           0.13






         TIME SUMMARY AT END OF TIME STEP    1 IN STRESS PERIOD    1
                    SECONDS     MINUTES      HOURS       DAYS        YEARS
                    -----------------------------------------------------------
   TIME STEP LENGTH  86400.      1440.0      24.000      1.0000     2.73785E-03
 STRESS PERIOD TIME  86400.      1440.0      24.000      1.0000     2.73785E-03
         TOTAL TIME  86400.      1440.0      24.000      1.0000     2.73785E-03
1

 Run end date and time (yyyy/mm/dd hh:mm:ss): 2020/04/29 13:55:23
 Elapsed run time:  0.368 Seconds

