                                  MODFLOW-NWT-SWR1 
      U.S. GEOLOGICAL SURVEY MODULAR FINITE-DIFFERENCE GROUNDWATER-FLOW MODEL
                             VERSION 1.1.4 4/01/2018
                    BASED ON MODFLOW-2005 VERSION 1.12.00 02/03/2017

 LIST FILE: Bhima_transient.list
                         UNIT    2

 OPENING Bhima_transient.dis
 FILE TYPE:DIS   UNIT   11   STATUS:OLD    
 FORMAT:FORMATTED              ACCESS:SEQUENTIAL          

 OPENING Bhima_transient.bas
 FILE TYPE:BAS6   UNIT   13   STATUS:OLD    
 FORMAT:FORMATTED              ACCESS:SEQUENTIAL          

 OPENING Bhima_transient.upw
 FILE TYPE:UPW   UNIT   31   STATUS:OLD    
 FORMAT:FORMATTED              ACCESS:SEQUENTIAL          

 OPENING Bhima_transient.nwt
 FILE TYPE:NWT   UNIT   32   STATUS:OLD    
 FORMAT:FORMATTED              ACCESS:SEQUENTIAL          

 OPENING Bhima_transient.drn
 FILE TYPE:DRN   UNIT   21   STATUS:OLD    
 FORMAT:FORMATTED              ACCESS:SEQUENTIAL          

 OPENING Bhima_transient.rch
 FILE TYPE:RCH   UNIT   19   STATUS:OLD    
 FORMAT:FORMATTED              ACCESS:SEQUENTIAL          

 OPENING Bhima_transient.wel
 FILE TYPE:WEL   UNIT   20   STATUS:OLD    
 FORMAT:FORMATTED              ACCESS:SEQUENTIAL          

 OPENING Bhima_transient.oc
 FILE TYPE:OC   UNIT   14   STATUS:OLD    
 FORMAT:FORMATTED              ACCESS:SEQUENTIAL          

 OPENING Bhima_transient.hds
 FILE TYPE:DATA(BINARY)   UNIT   51   STATUS:REPLACE
 FORMAT:BINARY                 ACCESS:SEQUENTIAL          

 BAS -- BASIC PACKAGE, VERSION 1.1.4, 4/01/2018 INPUT READ FROM UNIT   13
 
 MODFLOW was compiled using mixed precision
 Precision of REAL variables:           6
 Precision of DOUBLE PRECISION variables:          15

 DISCRETIZATION INPUT DATA READ FROM UNIT   11
 # DIS package for  MODFLOW-NWT, generated by Flopy.
    1 LAYERS       158 ROWS       342 COLUMNS
    1 STRESS PERIOD(S) IN SIMULATION
 MODEL TIME UNIT IS DAYS
 MODEL LENGTH UNIT IS METERS
  Confining bed flag for each layer:
   0

                     DELR =   500.000    

                     DELC =   500.000    



           TOP ELEVATION OF LAYER 1
 READING ON UNIT   11 WITH FORMAT: (342E15.6)          



             MODEL LAYER BOTTOM EL. FOR LAYER   1
 READING ON UNIT   11 WITH FORMAT: (342E15.6)          


 STRESS PERIOD     LENGTH       TIME STEPS     MULTIPLIER FOR DELT    SS FLAG
 ----------------------------------------------------------------------------
        1         1.000000          1                    1.000         TR

 TRANSIENT SIMULATION



 
 # BAS6 package for  MODFLOW-NWT, generated by Flopy.                            
 THE FREE FORMAT OPTION HAS BEEN SELECTED



                     BOUNDARY ARRAY FOR LAYER   1
 READING ON UNIT   13 WITH FORMAT: (342I10)            

 AQUIFER HEAD WILL BE SET TO  -999.99     AT ALL NO-FLOW NODES (IBOUND=0).



                       INITIAL HEAD FOR LAYER   1
 READING ON UNIT   13 WITH FORMAT: (342E15.6)          
 # OC package for  MODFLOW-NWT, generated by Flopy.

 OUTPUT CONTROL IS SPECIFIED ONLY AT TIME STEPS FOR WHICH OUTPUT IS DESIRED
 COMPACT CELL-BY-CELL BUDGET FILES WILL BE WRITTEN
 AUXILIARY DATA WILL BE SAVED IN CELL-BY-CELL BUDGET FILES
 HEAD PRINT FORMAT CODE IS   0    DRAWDOWN PRINT FORMAT CODE IS   0
 HEADS WILL BE SAVED ON UNIT   51    DRAWDOWNS WILL BE SAVED ON UNIT    0
 # NWT package for  MODFLOW-NWT, generated by Flopy.

 NWT1 -- Newton Solver, VERSION 1.1.4, 4/01/2018
         INPUT READ FROM UNIT 32

 COMPLEX OPTION:
 DEFAULT SOLVER INPUT VALUES REFLECT STRONGLY NONLINEAR MODEL
 ***GMRES linear solver will be used***
 
   CONVERGENCE CRITERION OF   0.100000E-01 FOR HEAD SOLUTION
   AND A TOLERANCE OF   0.350000E+04 FOR FLOW SOLUTION AND 
   A MAXIMUM OF   100 OUTER ITERATIONS. 


   D-B-D REDUCTION FACTOR OF    0.850000E+00 AND 
   A D-B-D INCREASE FACTOR OF    0.100000E-04 AND 
   A D-B-D RELAXATION OF    0.000000E+00 AND 
   A MOMENTUM FACTOR OF    0.100000E+00 .


   BACKTRACKING IS ACTIVE 
   THE MAXIMUM NUMBER OF BACKTRACKS IS    50 AND 
   THE BACKTRACKING TOLERANCE IS    0.110000E+01 AND
   THE BACKTRACKING REDUCTION FACTOR IS    0.700000E+00

 GMRES -- LINEAR SOLUTION BY GMRES PACKAGE 
     adapted for HYDROTHERM by Kipp and others (2008)
     using software originally developed by Saad (1990) 32
     using algorithms described in Saad (2003)

 UPW1 -- UPSTREAM WEIGHTING FLOW PACKAGE, VERSION 1.1.4, 4/01/2018
         INPUT READ FROM UNIT 31

 # UPW package for  MODFLOW-NWT, generated by Flopy.
 No named parameters

   LAYER FLAGS:
 LAYER       LAYTYP          LAYAVG    CHANI           LAYVKA           LAYWET
 ---------------------------------------------------------------------------
    1             1             0     1.000E+00             1             0

   INTERPRETATION OF LAYER FLAGS:
                        INTERBLOCK     HORIZONTAL    DATA IN
         LAYER TYPE   TRANSMISSIVITY   ANISOTROPY   ARRAY VKA   WETTABILITY
 LAYER   (LAYTYP)        (LAYAVG)      (CHANI)     (LAYVKA)       (LAYWET)
 ---------------------------------------------------------------------------
    1   CONVERTIBLE      HARMONIC     1.000E+00    ANISOTROPY  NON-WETTABLE



              HYD. COND. ALONG ROWS FOR LAYER   1
 READING ON UNIT   31 WITH FORMAT: (342E15.6)          

  HORIZ. TO VERTICAL ANI. =   5.00000     FOR LAYER   1



                   SPECIFIC STORAGE FOR LAYER   1
 READING ON UNIT   31 WITH FORMAT: (342E15.6)          

           SPECIFIC YIELD =  8.000000E-02 FOR LAYER   1

 WEL -- WELL PACKAGE FOR NWT VERSION 1.1.4,  4/01/2018 INPUT READ FROM UNIT   20
 # WEL package for  MODFLOW-NWT, generated by Flopy.
 No named parameters
 MAXIMUM OF  10012 ACTIVE WELLS AT ONE TIME
 No named parameters
  PHIRAMP WILL BE SET TO A DEFAULT VALUE OF 1.0E-5
  WELLS WITH REDUCED PUMPING WILL BE REPORTED TO THE MAIN LISTING FILE


     0 Well parameters

 DRN -- DRAIN PACKAGE, VERSION 7, 5/2/2005 INPUT READ FROM UNIT   21
 # DRN package for  MODFLOW-NWT, generated by Flopy.
 No named parameters
 MAXIMUM OF  54036 ACTIVE DRAINS AT ONE TIME
 LISTS OF DRAIN CELLS WILL NOT BE PRINTED


     0 Drain parameters

 RCH -- RECHARGE PACKAGE, VERSION 7, 5/2/2005 INPUT READ FROM UNIT   19
 # RCH package for  MODFLOW-NWT, generated by Flopy.
 No named parameters
 OPTION 3 -- RECHARGE TO HIGHEST ACTIVE NODE IN EACH VERTICAL COLUMN


     0 Recharge parameters
1
                            STRESS PERIOD NO.    1, LENGTH =   1.000000    
                            -----------------------------------------------

                              NUMBER OF TIME STEPS =     1

                               MULTIPLIER FOR DELT =     1.000

                            INITIAL TIME STEP SIZE =   1.000000    

 WELL NO.  LAYER   ROW   COL   STRESS RATE         
 --------------------------------------------------
      1      1      2    149      -318.4    
      2      1      3    105      -534.6    
      3      1      3    106      -534.6    
      4      1      4    136      -232.3    
      5      1      4    140      -232.3    
      6      1      4    142      -232.3    
      7      1      4    143      -232.3    
      8      1      4    145      -232.3    
      9      1      4    147      -232.3    
     10      1      4    149      -232.3    
     11      1      4    150      -232.3    
     12      1      4    152      -232.3    
     13      1      4    154      -180.4    
     14      1      4    156      -180.4    
     15      1      5    103      -534.6    
     16      1      5    105      -534.6    
     17      1      5    106      -534.6    
     18      1      5    108      -534.6    
     19      1      5    117      -534.6    
     20      1      5    119      -228.8    
     21      1      5    121      -228.8    
     22      1      5    122      -228.8    
     23      1      5    124      -228.8    
     24      1      5    126      -228.8    
     25      1      5    128      -228.8    
     26      1      5    129      -228.8    
     27      1      5    131      -228.8    
     28      1      5    133      -228.8    
     29      1      5    135      -228.8    
     30      1      5    136      -232.3    
     31      1      5    138      -232.3    
     32      1      5    140      -232.3    
     33      1      5    142      -232.3    
     34      1      5    143      -232.3    
     35      1      6    145      -232.3    
     36      1      6    147      -232.3    
     37      1      6    149      -232.3    
     38      1      6    150      -232.3    
     39      1      6    152      -232.3    
     40      1      6    154      -180.4    
     41      1      6    156      -180.4    
     42      1      7     78      -330.1    
     43      1      7     80      -330.1    
     44      1      7     82      -330.1    
     45      1      7     84      -296.5    
     46      1      7     85      -296.5    
     47      1      7     87      -296.5    
     48      1      7     89      -296.5    
     49      1      7     91      -296.5    
     50      1      7     92      -296.5    
     51      1      7     94      -296.5    
     52      1      7     96      -296.5    
     53      1      7     98      -296.5    
     54      1      7     99      -296.5    
     55      1      7    101      -534.7    
     56      1      7    103      -534.7    
     57      1      7    105      -534.7    
     58      1      7    106      -534.7    
     59      1      7    108      -534.7    
     60      1      7    110      -534.7    
     61      1      7    112      -534.7    
     62      1      7    113      -534.7    
     63      1      7    115      -534.7    
     64      1      7    117      -534.7    
     65      1      7    119      -228.8    
     66      1      7    120      -228.8    
     67      1      7    122      -228.8    
     68      1      7    124      -228.8    
     69      1      7    126      -228.8    
     70      1      7    128      -228.8    
     71      1      7    129      -228.8    
     72      1      7    131      -228.8    
     73      1      7    133      -228.8    
     74      1      7    135      -228.8    
     75      1      7    136      -232.4    
     76      1      7    138      -232.4    
     77      1      7    140      -232.4    
     78      1      7    142      -232.4    
     79      1      7    143      -232.4    
     80      1      7    145      -232.4    
     81      1      7    147      -232.4    
     82      1      7    149      -232.4    
     83      1      7    150      -232.4    
     84      1      7    152      -4632.    
     85      1      7    154      -3512.    
     86      1      7    156      -180.4    
     87      1      7    157      -180.4    
     88      1      9     66      -330.1    
     89      1      9     68      -330.1    
     90      1      9     69      -330.1    
     91      1      9     71      -330.1    
     92      1      9     73      -330.1    
     93      1      9     75      -330.1    
     94      1      9     76      -330.1    
     95      1      9     78      -330.1    
     96      1      9     80      -330.1    
     97      1      9     82      -330.1    
     98      1      9     84      -296.5    
     99      1      9     85      -296.5    
    100      1      9     87      -296.5    
    101      1      9     89      -296.5    
    102      1      9     91      -296.5    
    103      1      9     92      -296.5    
    104      1      9     94      -296.5    
    105      1      9     96      -296.5    
    106      1      9     98      -296.5    
    107      1      9     99      -296.5    
    108      1      9    101      -534.7    
    109      1      9    103      -534.7    
    110      1      9    105      -534.7    
    111      1      9    106      -534.7    
    112      1      9    108      -534.7    
    113      1      9    110      -534.7    
    114      1      9    112      -534.7    
    115      1      9    113      -534.7    
    116      1      9    115      -534.7    
    117      1      9    117      -534.7    
    118      1      9    119      -228.9    
    119      1      9    120      -228.9    
    120      1      9    122      -228.9    
    121      1      9    124      -228.9    
    122      1      9    126      -228.9    
    123      1      9    128      -228.9    
    124      1      9    129      -228.9    
    125      1      9    131      -228.9    
    126      1      9    133      -228.9    
    127      1      9    135      -228.9    
    128      1      9    136      -232.4    
    129      1      9    138      -232.4    
    130      1      9    140      -232.4    
    131      1      9    142      -232.4    
    132      1      9    143      -232.4    
    133      1      9    145      -232.4    
    134      1      9    147      -232.4    
    135      1      9    149      -232.4    
    136      1      9    150      -232.4    
    137      1      9    152      -232.4    
    138      1      9    154      -180.5    
    139      1      9    156      -180.5    
    140      1      9    157      -180.5    
    141      1      9    159      -180.5    
    142      1     11     61      -283.7    
    143      1     11     62      -283.7    
    144      1     11     64      -283.7    
    145      1     11     66      -330.1    
    146      1     11     68      -330.1    
    147      1     11     69      -330.1    
    148      1     11     71      -330.1    
    149      1     11     73      -330.1    
    150      1     11     75      -330.1    
    151      1     11     76      -330.1    
    152      1     11     78      -330.1    
    153      1     11     80      -330.1    
    154      1     11     82      -330.1    
    155      1     11     83      -296.5    
    156      1     11     85      -296.5    
    157      1     11     87      -296.5    
    158      1     11     89      -296.5    
    159      1     11     91      -296.5    
    160      1     11     92      -296.5    
    161      1     11     94      -296.5    
    162      1     11     96      -296.5    
    163      1     11     98      -296.5    
    164      1     11     99      -296.5    
    165      1     11    101      -534.7    
    166      1     11    103      -534.7    
    167      1     11    105      -534.7    
    168      1     11    106      -534.7    
    169      1     11    108      -534.7    
    170      1     11    110      -534.7    
    171      1     11    112      -534.7    
    172      1     11    113      -534.7    
    173      1     11    115      -534.7    
    174      1     11    117      -534.7    
    175      1     11    119      -228.9    
    176      1     11    120      -228.9    
    177      1     11    122      -228.9    
    178      1     11    124      -228.9    
    179      1     11    126      -228.9    
    180      1     11    128      -228.9    
    181      1     11    129      -228.9    
    182      1     11    131      -228.9    
    183      1     11    133      -228.9    
    184      1     11    135      -228.9    
    185      1     11    136      -232.4    
    186      1     11    138      -232.4    
    187      1     11    140      -232.4    
    188      1     11    142      -232.4    
    189      1     11    143      -232.4    
    190      1     11    145      -232.4    
    191      1     11    147      -232.4    
    192      1     11    149      -232.4    
    193      1     11    150      -232.4    
    194      1     11    152      -232.4    
    195      1     11    154      -180.5    
    196      1     11    156      -180.5    
    197      1     11    157      -180.5    
    198      1     11    159      -180.5    
    199      1     11    161      -180.5    
    200      1     11    163      -180.5    
    201      1     11    164      -180.5    
    202      1     12     59      -283.7    
    203      1     12     61      -283.7    
    204      1     12     62      -283.7    
    205      1     12     64      -283.7    
    206      1     12     66      -330.2    
    207      1     12     68      -330.2    
    208      1     12     69      -330.2    
    209      1     12     71      -330.2    
    210      1     12     73      -330.2    
    211      1     13     75      -330.2    
    212      1     13     76      -330.2    
    213      1     13     78      -330.2    
    214      1     13     80      -330.2    
    215      1     13     82      -330.2    
    216      1     13     83      -296.6    
    217      1     13     85      -296.6    
    218      1     13     87      -296.6    
    219      1     13     89      -296.6    
    220      1     13     91      -296.6    
    221      1     13     92      -296.6    
    222      1     13     94      -296.6    
    223      1     13     96      -296.6    
    224      1     13     98      -296.6    
    225      1     13     99      -296.6    
    226      1     13    101      -534.7    
    227      1     13    103      -534.7    
    228      1     13    105      -534.7    
    229      1     13    106      -534.7    
    230      1     13    108      -534.7    
    231      1     13    110      -534.7    
    232      1     13    112      -534.7    
    233      1     13    113      -534.7    
    234      1     13    115      -534.7    
    235      1     13    117      -534.7    
    236      1     13    119      -228.9    
    237      1     13    120      -228.9    
    238      1     13    122      -228.9    
    239      1     13    124      -228.9    
    240      1     13    126     -0.8665E+05
    241      1     13    128      -228.9    
    242      1     13    129      -228.9    
    243      1     13    131      -228.9    
    244      1     13    133      -228.9    
    245      1     13    135      -228.9    
    246      1     13    136      -232.4    
    247      1     13    138      -232.4    
    248      1     13    140      -232.4    
    249      1     13    142      -232.4    
    250      1     13    143      -232.4    
    251      1     13    145      -232.4    
    252      1     13    147      -232.4    
    253      1     13    149      -232.4    
    254      1     13    150      -232.4    
    255      1     13    152      -232.4    
    256      1     13    154      -180.5    
    257      1     13    156      -180.5    
    258      1     13    157      -180.5    
    259      1     13    159      -180.5    
    260      1     13    161      -180.5    
    261      1     13    163      -180.5    
    262      1     13    164      -180.5    
    263      1     14     55      -283.7    
    264      1     14     57      -283.7    
    265      1     14     59      -283.7    
    266      1     14     61      -283.7    
    267      1     14     62      -283.7    
    268      1     14     64      -283.7    
    269      1     14     66      -330.2    
    270      1     14     68      -330.2    
    271      1     14     69      -330.2    
    272      1     14     71      -330.2    
    273      1     14     73      -330.2    
    274      1     14     75      -330.2    
    275      1     14     76      -330.2    
    276      1     14     78      -330.2    
    277      1     14     80      -330.2    
    278      1     14     82      -330.2    
    279      1     14     83      -296.6    
    280      1     14     85      -296.6    
    281      1     14     87      -296.6    
    282      1     14     89      -296.6    
    283      1     14     91      -296.6    
    284      1     14     92      -296.6    
    285      1     14     94      -296.6    
    286      1     14     96      -296.6    
    287      1     14     98      -296.6    
    288      1     14     99      -296.6    
    289      1     15    101      -534.8    
    290      1     15    103      -534.8    
    291      1     15    105      -534.8    
    292      1     15    106      -534.8    
    293      1     15    108      -534.8    
    294      1     15    110      -534.8    
    295      1     15    112      -534.8    
    296      1     15    113      -534.8    
    297      1     15    115      -534.8    
    298      1     15    117      -534.8    
    299      1     15    119      -228.9    
    300      1     15    120      -228.9    
    301      1     15    122      -228.9    
    302      1     15    124      -228.9    
    303      1     15    126      -228.9    
    304      1     15    127      -228.9    
    305      1     15    129      -228.9    
    306      1     15    131      -228.9    
    307      1     15    133      -228.9    
    308      1     15    135      -228.9    
    309      1     15    136      -232.4    
    310      1     15    138      -232.4    
    311      1     15    140      -232.4    
    312      1     15    142      -232.4    
    313      1     15    143      -232.4    
    314      1     15    145      -232.4    
    315      1     15    147      -232.4    
    316      1     15    149      -232.4    
    317      1     15    150      -232.4    
    318      1     15    152      -232.4    
    319      1     15    154      -180.5    
    320      1     15    156      -180.5    
    321      1     15    157      -180.5    
    322      1     15    159      -180.5    
    323      1     15    161      -180.5    
    324      1     15    163      -180.5    
    325      1     15    164      -180.5    
    326      1     15    166      -180.5    
    327      1     16     48      -283.7    
    328      1     16     50      -283.7    
    329      1     16     52      -283.7    
    330      1     16     54      -283.7    
    331      1     16     55      -283.7    
    332      1     16     57      -283.7    
    333      1     16     59      -283.7    
    334      1     16     61      -283.7    
    335      1     16     62      -283.7    
    336      1     16     64      -283.7    
    337      1     16     66      -330.2    
    338      1     16     68      -330.2    
    339      1     16     69      -330.2    
    340      1     16     71      -330.2    
    341      1     16     73      -330.2    
    342      1     16     75      -330.2    
    343      1     16     76      -330.2    
    344      1     16     78      -330.2    
    345      1     16     80      -330.2    
    346      1     16     82      -330.2    
    347      1     16     83      -296.6    
    348      1     16     85      -296.6    
    349      1     16     87      -296.6    
    350      1     16     89      -296.6    
    351      1     16     91      -296.6    
    352      1     16     92      -296.6    
    353      1     16     94      -296.6    
    354      1     16     96      -296.6    
    355      1     16     98      -296.6    
    356      1     16     99      -296.6    
    357      1     16    101      -534.8    
    358      1     16    103      -534.8    
    359      1     16    105      -534.8    
    360      1     16    106      -534.8    
    361      1     16    108      -534.8    
    362      1     16    110      -534.8    
    363      1     16    112      -534.8    
    364      1     16    113      -534.8    
    365      1     16    115      -534.8    
    366      1     16    117      -534.8    
    367      1     16    119      -228.9    
    368      1     16    120      -228.9    
    369      1     16    122      -228.9    
    370      1     16    124      -228.9    
    371      1     16    126      -228.9    
    372      1     16    127      -228.9    
    373      1     16    129      -228.9    
    374      1     17    131      -228.9    
    375      1     17    133      -228.9    
    376      1     17    135      -228.9    
    377      1     17    136      -232.4    
    378      1     17    138      -232.4    
    379      1     17    140      -232.4    
    380      1     17    142      -232.4    
    381      1     17    143      -232.4    
    382      1     17    145      -232.4    
    383      1     17    147      -232.4    
    384      1     17    149      -232.4    
    385      1     17    150      -232.4    
    386      1     17    152      -232.4    
    387      1     17    154      -180.5    
    388      1     17    156      -180.5    
    389      1     17    157      -180.5    
    390      1     17    159      -180.5    
    391      1     17    161      -180.5    
    392      1     17    163      -180.5    
    393      1     17    164      -180.5    
    394      1     17    166      -180.5    
    395      1     17    168      -180.5    
    396      1     17    170      -180.5    
    397      1     17    172      -233.6    
    398      1     17    173      -233.6    
    399      1     17    175      -233.6    
    400      1     17    177      -233.6    
    401      1     17    187      -233.6    
    402      1     17    189      -236.6    
    403      1     18     48      -283.7    
    404      1     18     50      -283.7    
    405      1     18     52      -283.7    
    406      1     18     54      -283.7    
    407      1     18     55      -283.7    
    408      1     18     57      -283.7    
    409      1     18     59      -283.7    
    410      1     18     61      -283.7    
    411      1     18     62      -283.7    
    412      1     18     64      -283.7    
    413      1     18     66      -330.2    
    414      1     18     68      -330.2    
    415      1     18     69      -330.2    
    416      1     18     71      -330.2    
    417      1     18     73      -330.2    
    418      1     18     75      -330.2    
    419      1     18     76      -330.2    
    420      1     18     78      -330.2    
    421      1     18     80      -330.2    
    422      1     18     82      -330.2    
    423      1     18     83      -296.6    
    424      1     18     85      -296.6    
    425      1     18     87      -296.6    
    426      1     18     89      -296.6    
    427      1     18     90      -296.6    
    428      1     18     92      -296.6    
    429      1     18     94      -296.6    
    430      1     18     96      -296.6    
    431      1     18     98      -296.6    
    432      1     18     99      -296.6    
    433      1     18    101      -534.8    
    434      1     18    103      -534.8    
    435      1     18    105      -534.8    
    436      1     18    106      -534.8    
    437      1     18    108      -534.8    
    438      1     18    110      -534.8    
    439      1     18    112      -534.8    
    440      1     18    113      -534.8    
    441      1     18    115      -534.8    
    442      1     18    117      -534.8    
    443      1     18    119      -228.9    
    444      1     18    120      -228.9    
    445      1     18    122      -228.9    
    446      1     18    124      -228.9    
    447      1     18    126      -228.9    
    448      1     18    127      -228.9    
    449      1     18    129      -228.9    
    450      1     18    131      -228.9    
    451      1     18    133      -228.9    
    452      1     18    135      -228.9    
    453      1     18    136      -232.4    
    454      1     18    138      -232.4    
    455      1     18    140      -232.4    
    456      1     18    142      -232.4    
    457      1     18    143      -232.4    
    458      1     18    145      -232.4    
    459      1     18    147      -232.4    
    460      1     18    149      -232.4    
    461      1     18    150      -232.4    
    462      1     18    152      -232.4    
    463      1     18    154      -180.5    
    464      1     18    156      -180.5    
    465      1     18    157      -180.5    
    466      1     18    159      -180.5    
    467      1     18    161      -180.5    
    468      1     18    163      -180.5    
    469      1     18    164      -180.5    
    470      1     18    166      -2407.    
    471      1     19    168      -180.5    
    472      1     19    170      -180.5    
    473      1     19    172      -233.6    
    474      1     19    173      -233.6    
    475      1     19    175      -233.6    
    476      1     19    177      -233.6    
    477      1     19    179      -233.6    
    478      1     19    180      -233.6    
    479      1     19    182      -233.6    
    480      1     19    184      -233.6    
    481      1     19    186      -233.6    
    482      1     19    187      -233.6    
    483      1     19    189      -236.6    
    484      1     19    191      -236.6    
    485      1     19    193      -236.6    
    486      1     19    194      -236.6    
    487      1     19    196      -236.6    
    488      1     20     27      -191.2    
    489      1     20     29      -191.2    
    490      1     20     31      -230.9    
    491      1     20     46      -230.9    
    492      1     20     48      -283.7    
    493      1     20     50      -283.7    
    494      1     20     52      -283.7    
    495      1     20     54      -283.7    
    496      1     20     55      -283.7    
    497      1     20     57      -283.7    
    498      1     20     59      -283.7    
    499      1     20     61      -283.7    
    500      1     20     62      -283.7    
    501      1     20     64      -283.7    
    502      1     20     66      -330.2    
    503      1     20     68      -330.2    
    504      1     20     69      -330.2    
    505      1     20     71      -330.2    
    506      1     20     73      -330.2    
    507      1     20     75      -330.2    
    508      1     20     76      -330.2    
    509      1     20     78      -330.2    
    510      1     20     80      -330.2    
    511      1     20     82      -330.2    
    512      1     20     83      -296.6    
    513      1     20     85      -296.6    
    514      1     20     87      -296.6    
    515      1     20     89      -296.6    
    516      1     20     90      -296.6    
    517      1     20     92      -296.6    
    518      1     20     94      -296.6    
    519      1     20     96      -296.6    
    520      1     20     98      -296.6    
    521      1     20     99      -296.6    
    522      1     20    101      -534.8    
    523      1     20    103      -534.8    
    524      1     20    105      -534.8    
    525      1     20    106      -534.8    
    526      1     20    108      -534.8    
    527      1     20    110      -534.8    
    528      1     20    112      -534.8    
    529      1     20    113      -534.8    
    530      1     20    115      -534.8    
    531      1     20    117      -534.8    
    532      1     20    119      -228.9    
    533      1     20    120      -228.9    
    534      1     20    122      -228.9    
    535      1     20    124      -228.9    
    536      1     20    126      -228.9    
    537      1     20    127      -228.9    
    538      1     20    129      -228.9    
    539      1     20    131      -228.9    
    540      1     20    133      -228.9    
    541      1     20    135      -228.9    
    542      1     20    136      -232.4    
    543      1     20    138      -232.4    
    544      1     20    140      -232.4    
    545      1     20    142      -232.4    
    546      1     20    143      -232.4    
    547      1     20    145     -0.7661E+05
    548      1     20    147      -232.4    
    549      1     20    149      -232.4    
    550      1     20    150      -232.4    
    551      1     20    152      -232.4    
    552      1     20    154      -180.5    
    553      1     20    156      -180.5    
    554      1     20    157      -180.5    
    555      1     20    159      -180.5    
    556      1     20    161      -180.5    
    557      1     20    163      -180.5    
    558      1     20    164      -180.5    
    559      1     20    166      -180.5    
    560      1     20    168      -180.5    
    561      1     20    170      -180.5    
    562      1     20    172      -233.6    
    563      1     20    173      -233.6    
    564      1     20    175      -233.6    
    565      1     20    177      -233.6    
    566      1     20    179      -233.6    
    567      1     20    180      -233.6    
    568      1     20    182      -233.6    
    569      1     20    184      -233.6    
    570      1     20    186      -233.6    
    571      1     20    187      -233.6    
    572      1     20    189      -236.6    
    573      1     20    191      -236.6    
    574      1     20    193      -236.6    
    575      1     20    194      -236.6    
    576      1     20    196      -236.6    
    577      1     20    198      -236.6    
    578      1     21     15      -139.5    
    579      1     21     16      -139.5    
    580      1     21     18      -139.5    
    581      1     21     20      -139.5    
    582      1     21     22      -139.5    
    583      1     21     24      -139.5    
    584      1     21     25      -139.5    
    585      1     21     27      -139.5    
    586      1     21     29      -139.5    
    587      1     21     31      -175.3    
    588      1     21     32      -175.3    
    589      1     22     43      -175.3    
    590      1     22     45      -175.3    
    591      1     22     46      -175.3    
    592      1     22     48      -211.4    
    593      1     22     50      -211.4    
    594      1     22     52      -211.4    
    595      1     22     53      -211.4    
    596      1     22     55      -211.4    
    597      1     22     57      -211.4    
    598      1     22     59      -211.4    
    599      1     22     61      -211.4    
    600      1     22     62      -211.4    
    601      1     22     64      -211.4    
    602      1     22     66      -259.7    
    603      1     22     68      -259.7    
    604      1     22     69      -259.7    
    605      1     22     71      -259.7    
    606      1     22     73      -259.7    
    607      1     22     75      -259.7    
    608      1     22     76      -259.7    
    609      1     22     78      -259.7    
    610      1     22     80      -259.7    
    611      1     22     82      -259.7    
    612      1     22     83      -227.9    
    613      1     22     85      -227.9    
    614      1     22     87      -227.9    
    615      1     22     89      -227.9    
    616      1     22     90      -227.9    
    617      1     22     92      -227.9    
    618      1     22     94      -227.9    
    619      1     22     96      -227.9    
    620      1     22     98      -227.9    
    621      1     22     99      -227.9    
    622      1     22    101      -226.2    
    623      1     22    103      -226.2    
    624      1     22    105      -226.2    
    625      1     22    106      -226.2    
    626      1     22    108      -226.2    
    627      1     22    110      -226.2    
    628      1     22    112      -226.2    
    629      1     22    113      -226.2    
    630      1     22    115      -226.2    
    631      1     22    117      -226.2    
    632      1     22    119      -339.3    
    633      1     22    120      -339.3    
    634      1     22    122      -339.3    
    635      1     22    124      -339.3    
    636      1     22    126      -339.3    
    637      1     22    127      -339.3    
    638      1     22    129      -339.3    
    639      1     22    131      -339.3    
    640      1     22    133      -339.3    
    641      1     22    135      -339.3    
    642      1     22    136      -363.8    
    643      1     22    138      -363.8    
    644      1     22    140      -363.8    
    645      1     22    142      -363.8    
    646      1     22    143      -363.8    
    647      1     22    145      -363.8    
    648      1     22    147      -363.8    
    649      1     22    149      -363.8    
    650      1     22    150      -363.8    
    651      1     22    152      -363.8    
    652      1     22    154      -224.3    
    653      1     22    156      -224.3    
    654      1     22    157      -224.3    
    655      1     22    159      -224.3    
    656      1     22    161      -224.3    
    657      1     22    163      -224.3    
    658      1     22    164      -224.3    
    659      1     22    166      -224.3    
    660      1     22    168      -224.3    
    661      1     22    170      -224.3    
    662      1     22    171      -216.7    
    663      1     22    173      -216.7    
    664      1     22    175      -216.7    
    665      1     22    177      -216.7    
    666      1     22    179      -216.7    
    667      1     22    180      -216.7    
    668      1     22    182      -216.7    
    669      1     22    184      -216.7    
    670      1     22    186      -216.7    
    671      1     22    187      -216.7    
    672      1     22    189      -202.0    
    673      1     22    191      -202.0    
    674      1     22    193      -202.0    
    675      1     22    194      -202.0    
    676      1     22    196      -202.0    
    677      1     22    198      -202.0    
    678      1     22    200      -202.0    
    679      1     22    201      -202.0    
    680      1     22    203      -202.0    
    681      1     23     13      -139.5    
    682      1     23     15      -139.5    
    683      1     23     16      -139.5    
    684      1     23     18      -139.5    
    685      1     23     20      -139.5    
    686      1     23     22      -139.5    
    687      1     23     24      -139.5    
    688      1     23     25      -139.5    
    689      1     23     27      -139.5    
    690      1     23     29      -139.5    
    691      1     23     31      -175.3    
    692      1     23     32      -175.3    
    693      1     23     34      -175.3    
    694      1     23     36      -175.3    
    695      1     23     38      -175.3    
    696      1     23     39      -175.3    
    697      1     23     41      -175.3    
    698      1     23     43      -175.3    
    699      1     23     45      -175.3    
    700      1     23     46      -175.3    
    701      1     23     48      -211.5    
    702      1     23     50      -211.5    
    703      1     23     52      -211.5    
    704      1     23     53      -211.5    
    705      1     23     55      -211.5    
    706      1     23     57      -211.5    
    707      1     23     59      -211.5    
    708      1     23     61      -211.5    
    709      1     23     62      -211.5    
    710      1     24     64      -211.5    
    711      1     24     66      -259.7    
    712      1     24     68      -259.7    
    713      1     24     69      -259.7    
    714      1     24     71      -259.7    
    715      1     24     73      -259.7    
    716      1     24     75      -259.7    
    717      1     24     76      -259.7    
    718      1     24     78      -259.7    
    719      1     24     80      -259.7    
    720      1     24     82      -259.7    
    721      1     24     83      -227.9    
    722      1     24     85      -227.9    
    723      1     24     87      -227.9    
    724      1     24     89      -227.9    
    725      1     24     90      -227.9    
    726      1     24     92      -227.9    
    727      1     24     94      -227.9    
    728      1     24     96      -227.9    
    729      1     24     98      -227.9    
    730      1     24     99      -227.9    
    731      1     24    101      -226.2    
    732      1     24    103      -226.2    
    733      1     24    105      -226.2    
    734      1     24    106      -226.2    
    735      1     24    108      -226.2    
    736      1     24    110      -226.2    
    737      1     24    112      -226.2    
    738      1     24    113      -226.2    
    739      1     24    115      -226.2    
    740      1     24    117      -226.2    
    741      1     24    119      -339.3    
    742      1     24    120      -339.3    
    743      1     24    122      -339.3    
    744      1     24    124      -339.3    
    745      1     24    126      -339.3    
    746      1     24    127      -339.3    
    747      1     24    129      -339.3    
    748      1     24    131      -339.3    
    749      1     24    133      -339.3    
    750      1     24    135      -339.3    
    751      1     24    136      -363.9    
    752      1     24    138      -363.9    
    753      1     24    140      -363.9    
    754      1     24    142      -363.9    
    755      1     24    143      -363.9    
    756      1     24    145      -363.9    
    757      1     24    147      -363.9    
    758      1     24    149      -363.9    
    759      1     24    150      -363.9    
    760      1     24    152      -363.9    
    761      1     24    154      -224.3    
    762      1     24    156      -224.3    
    763      1     24    157      -224.3    
    764      1     24    159      -224.3    
    765      1     24    161      -224.3    
    766      1     24    163      -224.3    
    767      1     24    164      -224.3    
    768      1     24    166      -224.3    
    769      1     24    168      -224.3    
    770      1     24    170      -224.3    
    771      1     24    171      -216.7    
    772      1     24    173      -216.7    
    773      1     24    175      -216.7    
    774      1     24    177      -216.7    
    775      1     24    179      -216.7    
    776      1     24    180      -216.7    
    777      1     24    182      -216.7    
    778      1     24    184      -216.7    
    779      1     24    186      -216.7    
    780      1     24    187      -216.7    
    781      1     24    189      -202.0    
    782      1     24    191      -202.0    
    783      1     24    193      -202.0    
    784      1     24    194      -202.0    
    785      1     24    196      -202.0    
    786      1     24    198      -202.0    
    787      1     24    200      -202.0    
    788      1     24    201      -202.0    
    789      1     24    203      -202.0    
    790      1     24    205      -202.0    
    791      1     24    207      -195.7    
    792      1     24    208      -195.7    
    793      1     25      9      -48.15    
    794      1     25     11      -48.15    
    795      1     25     13      -139.5    
    796      1     25     15      -139.5    
    797      1     25     16      -139.5    
    798      1     25     18      -139.5    
    799      1     25     20      -139.5    
    800      1     25     22      -139.5    
    801      1     25     24      -139.5    
    802      1     25     25      -139.5    
    803      1     25     27      -139.5    
    804      1     25     29      -139.5    
    805      1     25     31      -175.3    
    806      1     25     32      -175.3    
    807      1     25     34      -175.3    
    808      1     25     36      -175.3    
    809      1     25     38      -175.3    
    810      1     25     39      -175.3    
    811      1     25     41      -175.3    
    812      1     25     43      -175.3    
    813      1     25     45      -175.3    
    814      1     25     46      -175.3    
    815      1     25     48      -211.5    
    816      1     25     50      -211.5    
    817      1     25     52      -211.5    
    818      1     25     53      -211.5    
    819      1     25     55      -211.5    
    820      1     25     57      -211.5    
    821      1     25     59      -211.5    
    822      1     25     61      -211.5    
    823      1     25     62      -211.5    
    824      1     25     64      -211.5    
    825      1     25     66      -259.7    
    826      1     25     68      -259.7    
    827      1     25     69      -259.7    
    828      1     25     71      -259.7    
    829      1     25     73      -259.7    
    830      1     25     75      -259.7    
    831      1     25     76      -259.7    
    832      1     25     78      -259.7    
    833      1     25     80      -259.7    
    834      1     25     82      -259.7    
    835      1     25     83      -228.0    
    836      1     25     85      -228.0    
    837      1     25     87      -228.0    
    838      1     26     89      -228.0    
    839      1     26     90      -228.0    
    840      1     26     92      -228.0    
    841      1     26     94      -228.0    
    842      1     26     96      -228.0    
    843      1     26     98      -228.0    
    844      1     26     99      -228.0    
    845      1     26    101      -226.2    
    846      1     26    103      -226.2    
    847      1     26    105      -226.2    
    848      1     26    106      -226.2    
    849      1     26    108      -226.2    
    850      1     26    110      -226.2    
    851      1     26    112      -226.2    
    852      1     26    113      -226.2    
    853      1     26    115      -226.2    
    854      1     26    117      -226.2    
    855      1     26    119      -339.4    
    856      1     26    120      -339.4    
    857      1     26    122      -339.4    
    858      1     26    124      -339.4    
    859      1     26    126      -339.4    
    860      1     26    127      -339.4    
    861      1     26    129      -339.4    
    862      1     26    131      -339.4    
    863      1     26    133      -339.4    
    864      1     26    134      -339.4    
    865      1     26    136      -363.9    
    866      1     26    138      -363.9    
    867      1     26    140      -363.9    
    868      1     26    142      -363.9    
    869      1     26    143      -363.9    
    870      1     26    145      -363.9    
    871      1     26    147      -363.9    
    872      1     26    149      -363.9    
    873      1     26    150      -363.9    
    874      1     26    152      -363.9    
    875      1     26    154      -224.3    
    876      1     26    156      -224.3    
    877      1     26    157      -224.3    
    878      1     26    159      -224.3    
    879      1     26    161      -224.3    
    880      1     26    163      -224.3    
    881      1     26    164      -224.3    
    882      1     26    166      -224.3    
    883      1     26    168      -224.3    
    884      1     26    170      -224.3    
    885      1     26    171      -216.8    
    886      1     26    173      -216.8    
    887      1     26    175      -216.8    
    888      1     26    177      -216.8    
    889      1     26    179      -216.8    
    890      1     26    180      -216.8    
    891      1     26    182      -216.8    
    892      1     26    184      -216.8    
    893      1     26    186      -216.8    
    894      1     26    187      -216.8    
    895      1     26    189      -202.0    
    896      1     26    191      -202.0    
    897      1     26    193      -202.0    
    898      1     26    194      -202.0    
    899      1     26    196      -202.0    
    900      1     26    198      -202.0    
    901      1     26    200      -202.0    
    902      1     26    201      -202.0    
    903      1     26    203      -202.0    
    904      1     26    205      -202.0    
    905      1     26    207      -195.7    
    906      1     26    208      -195.7    
    907      1     27      8      -48.15    
    908      1     27      9      -48.15    
    909      1     27     11      -48.15    
    910      1     27     13      -139.5    
    911      1     27     15      -139.5    
    912      1     27     16      -139.5    
    913      1     27     18      -139.5    
    914      1     27     20      -120.5    
    915      1     27     22      -53.14    
    916      1     27     24      -13.26    
    917      1     27     25      -13.95    
    918      1     27     27      -13.95    
    919      1     27     29      -13.95    
    920      1     27     31      -175.3    
    921      1     27     32      -175.3    
    922      1     27     34      -175.3    
    923      1     27     36      -175.3    
    924      1     27     38      -175.3    
    925      1     27     39      -175.3    
    926      1     27     41      -175.3    
    927      1     27     43      -175.3    
    928      1     27     45      -175.3    
    929      1     27     46      -175.3    
    930      1     27     48      -211.5    
    931      1     27     50      -211.5    
    932      1     27     52      -211.5    
    933      1     27     53      -211.5    
    934      1     27     55      -211.5    
    935      1     27     57      -211.5    
    936      1     27     59      -211.5    
    937      1     27     60      -211.5    
    938      1     27     62      -211.5    
    939      1     27     64      -211.5    
    940      1     27     66      -259.8    
    941      1     27     68      -259.8    
    942      1     27     69      -259.8    
    943      1     27     71      -259.8    
    944      1     27     73      -259.8    
    945      1     27     75      -259.8    
    946      1     27     76      -259.8    
    947      1     27     78      -259.8    
    948      1     27     80      -259.8    
    949      1     27     82      -259.8    
    950      1     27     83      -228.0    
    951      1     27     85      -228.0    
    952      1     27     87      -228.0    
    953      1     27     89      -228.0    
    954      1     27     90      -228.0    
    955      1     27     92      -228.0    
    956      1     27     94      -228.0    
    957      1     27     96      -228.0    
    958      1     27     97      -228.0    
    959      1     27     99      -228.0    
    960      1     27    101      -226.2    
    961      1     27    103      -226.2    
    962      1     27    105      -226.2    
    963      1     27    106      -226.2    
    964      1     27    108      -226.2    
    965      1     27    110      -226.2    
    966      1     27    112      -226.2    
    967      1     27    113      -226.2    
    968      1     27    115      -226.2    
    969      1     28    117      -226.2    
    970      1     28    119      -339.4    
    971      1     28    120      -339.4    
    972      1     28    122      -339.4    
    973      1     28    124      -339.4    
    974      1     28    126      -339.4    
    975      1     28    127      -339.4    
    976      1     28    129      -339.4    
    977      1     28    131      -339.4    
    978      1     28    133      -339.4    
    979      1     28    134      -339.4    
    980      1     28    136      -363.9    
    981      1     28    138      -363.9    
    982      1     28    140      -363.8    
    983      1     28    142      -363.9    
    984      1     28    143      -363.9    
    985      1     28    145      -363.9    
    986      1     28    147      -363.9    
    987      1     28    149      -363.9    
    988      1     28    150      -363.9    
    989      1     28    152      -363.9    
    990      1     28    154      -224.4    
    991      1     28    156      -224.4    
    992      1     28    157      -224.4    
    993      1     28    159      -224.4    
    994      1     28    161      -224.4    
    995      1     28    163      -224.4    
    996      1     28    164      -224.4    
    997      1     28    166      -224.4    
    998      1     28    168      -224.4    
    999      1     28    170      -224.4    
   1000      1     28    171      -216.8    
   1001      1     28    173      -216.8    
   1002      1     28    175      -216.8    
   1003      1     28    177      -216.8    
   1004      1     28    179      -216.8    
   1005      1     28    180      -216.8    
   1006      1     28    182      -216.8    
   1007      1     28    184      -216.8    
   1008      1     28    186      -216.8    
   1009      1     28    187      -216.8    
   1010      1     28    189      -202.0    
   1011      1     28    191      -202.0    
   1012      1     28    193      -202.0    
   1013      1     28    194      -202.0    
   1014      1     28    196      -202.0    
   1015      1     28    198      -202.0    
   1016      1     28    200      -202.0    
   1017      1     28    201      -202.0    
   1018      1     28    203      -202.0    
   1019      1     28    205      -202.0    
   1020      1     28    207      -195.7    
   1021      1     28    208      -195.7    
   1022      1     28    210      -195.7    
   1023      1     29      2      -48.15    
   1024      1     29      4      -48.15    
   1025      1     29      6      -48.15    
   1026      1     29      8      -48.15    
   1027      1     29      9      -48.15    
   1028      1     29     11      -48.15    
   1029      1     29     13      -121.6    
   1030      1     29     15      -85.69    
   1031      1     29     16      -12.74    
   1032      1     29     18      -120.7    
   1033      1     29     20      -139.5    
   1034      1     29     22      -139.5    
   1035      1     29     23      -139.5    
   1036      1     29     25      -139.5    
   1037      1     29     27      -139.5    
   1038      1     29     29      -139.5    
   1039      1     29     31      -15.80    
   1040      1     29     32      -17.10    
   1041      1     29     34      -17.53    
   1042      1     29     36      -17.53    
   1043      1     29     38      -175.3    
   1044      1     29     39      -175.3    
   1045      1     29     41      -175.3    
   1046      1     29     43      -175.3    
   1047      1     29     45      -175.3    
   1048      1     29     46      -175.3    
   1049      1     29     48      -211.5    
   1050      1     29     50      -211.5    
   1051      1     29     52      -211.5    
   1052      1     29     53      -211.5    
   1053      1     29     55      -211.5    
   1054      1     29     57      -211.5    
   1055      1     29     59      -211.5    
   1056      1     29     60      -211.5    
   1057      1     29     62      -211.5    
   1058      1     29     64      -211.5    
   1059      1     29     66      -259.8    
   1060      1     29     68      -259.8    
   1061      1     29     69      -259.8    
   1062      1     29     71      -259.8    
   1063      1     29     73      -259.8    
   1064      1     29     75      -259.8    
   1065      1     29     76      -259.8    
   1066      1     29     78      -259.8    
   1067      1     29     80      -259.8    
   1068      1     29     82      -259.8    
   1069      1     29     83      -228.0    
   1070      1     29     85      -228.0    
   1071      1     29     87      -228.0    
   1072      1     29     89      -228.0    
   1073      1     29     90      -228.0    
   1074      1     29     92      -228.0    
   1075      1     29     94      -228.0    
   1076      1     29     96      -228.0    
   1077      1     29     97      -228.0    
   1078      1     29     99      -228.0    
   1079      1     29    101      -226.2    
   1080      1     29    103      -226.2    
   1081      1     29    105      -226.2    
   1082      1     29    106      -226.2    
   1083      1     29    108      -226.2    
   1084      1     29    110      -226.2    
   1085      1     29    112      -226.2    
   1086      1     29    113      -226.2    
   1087      1     29    115      -226.2    
   1088      1     29    117      -226.2    
   1089      1     29    119      -339.4    
   1090      1     29    120      -339.4    
   1091      1     29    122      -339.4    
   1092      1     29    124      -339.4    
   1093      1     29    126      -339.4    
   1094      1     29    127      -339.4    
   1095      1     29    129      -339.4    
   1096      1     29    131      -339.4    
   1097      1     29    133      -339.4    
   1098      1     29    134      -339.4    
   1099      1     29    136      -363.9    
   1100      1     29    138      -363.9    
   1101      1     29    140      -363.9    
   1102      1     29    142      -363.9    
   1103      1     29    143      -363.9    
   1104      1     29    145      -363.9    
   1105      1     29    147      -363.9    
   1106      1     29    149      -363.9    
   1107      1     29    150      -363.9    
   1108      1     30    152      -363.9    
   1109      1     30    154      -224.4    
   1110      1     30    156      -224.4    
   1111      1     30    157      -224.4    
   1112      1     30    159      -224.4    
   1113      1     30    161      -224.4    
   1114      1     30    163      -224.4    
   1115      1     30    164      -224.4    
   1116      1     30    166      -224.4    
   1117      1     30    168      -224.4    
   1118      1     30    170      -224.4    
   1119      1     30    171      -216.8    
   1120      1     30    173      -216.8    
   1121      1     30    175      -216.8    
   1122      1     30    177      -216.8    
   1123      1     30    179      -216.8    
   1124      1     30    180      -216.8    
   1125      1     30    182      -216.8    
   1126      1     30    184      -216.8    
   1127      1     30    186      -216.8    
   1128      1     30    187      -216.8    
   1129      1     30    189      -202.0    
   1130      1     30    191      -202.0    
   1131      1     30    193      -202.0    
   1132      1     30    194      -202.0    
   1133      1     30    196      -202.0    
   1134      1     30    198      -202.0    
   1135      1     30    200      -202.0    
   1136      1     30    201      -202.0    
   1137      1     30    203      -202.0    
   1138      1     30    205      -202.0    
   1139      1     30    207      -195.7    
   1140      1     30    208      -195.7    
   1141      1     30    210      -195.7    
   1142      1     30    212      -195.7    
   1143      1     30      2      -48.15    
   1144      1     30      4      -48.15    
   1145      1     30      6      -48.15    
   1146      1     30      8      -48.15    
   1147      1     30      9      -48.15    
   1148      1     31     11      -48.15    
   1149      1     31     13      -139.5    
   1150      1     31     15      -139.5    
   1151      1     31     16      -139.5    
   1152      1     31     18      -139.5    
   1153      1     31     20      -139.5    
   1154      1     31     22      -139.5    
   1155      1     31     23      -139.5    
   1156      1     31     25      -139.5    
   1157      1     31     27      -139.5    
   1158      1     31     29      -139.5    
   1159      1     31     31      -175.3    
   1160      1     31     32      -175.3    
   1161      1     31     34      -175.3    
   1162      1     31     36      -175.3    
   1163      1     31     38      -16.23    
   1164      1     31     39      -17.53    
   1165      1     31     41      -175.3    
   1166      1     31     43      -175.3    
   1167      1     31     45      -175.3    
   1168      1     31     46      -175.3    
   1169      1     31     48      -211.5    
   1170      1     31     50      -211.5    
   1171      1     31     52      -211.5    
   1172      1     31     53      -211.5    
   1173      1     31     55      -211.5    
   1174      1     31     57      -211.5    
   1175      1     31     59      -211.5    
   1176      1     31     60      -211.5    
   1177      1     31     62      -211.5    
   1178      1     31     64      -211.5    
   1179      1     31     66      -259.8    
   1180      1     31     68      -259.8    
   1181      1     31     69      -259.8    
   1182      1     31     71      -259.8    
   1183      1     31     73      -259.8    
   1184      1     31     75      -259.8    
   1185      1     31     76      -259.8    
   1186      1     31     78      -259.8    
   1187      1     31     80      -259.8    
   1188      1     31     82      -259.8    
   1189      1     31     83      -228.0    
   1190      1     31     85      -228.0    
   1191      1     31     87      -228.0    
   1192      1     31     89      -228.0    
   1193      1     31     90      -228.0    
   1194      1     31     92      -228.0    
   1195      1     31     94      -228.0    
   1196      1     31     96      -228.0    
   1197      1     31     97      -228.0    
   1198      1     31     99      -228.0    
   1199      1     31    101      -226.2    
   1200      1     31    103      -226.2    
   1201      1     31    105      -226.2    
   1202      1     31    106      -226.2    
   1203      1     31    108      -226.2    
   1204      1     31    110      -226.2    
   1205      1     31    112      -226.2    
   1206      1     31    113      -226.2    
   1207      1     31    115      -226.2    
   1208      1     31    117      -226.2    
   1209      1     31    119      -339.4    
   1210      1     31    120      -339.4    
   1211      1     31    122      -339.4    
   1212      1     31    124      -339.4    
   1213      1     31    126      -339.4    
   1214      1     31    127      -339.4    
   1215      1     31    129      -339.4    
   1216      1     31    131      -339.4    
   1217      1     31    133      -339.4    
   1218      1     31    134      -339.4    
   1219      1     31    136      -363.9    
   1220      1     31    138      -363.9    
   1221      1     31    140      -363.9    
   1222      1     31    142      -363.9    
   1223      1     31    143      -363.9    
   1224      1     31    145      -363.9    
   1225      1     31    147      -363.9    
   1226      1     31    149      -363.9    
   1227      1     31    150      -363.9    
   1228      1     31    152      -363.9    
   1229      1     31    154      -224.4    
   1230      1     31    156      -224.4    
   1231      1     31    157      -224.4    
   1232      1     31    159      -224.4    
   1233      1     31    161      -224.4    
   1234      1     31    163      -224.4    
   1235      1     31    164      -224.4    
   1236      1     31    166      -224.4    
   1237      1     31    168      -224.4    
   1238      1     31    170      -224.4    
   1239      1     31    171      -216.8    
   1240      1     31    173      -216.8    
   1241      1     31    175      -216.8    
   1242      1     31    177      -216.8    
   1243      1     31    179      -216.8    
   1244      1     31    180      -216.8    
   1245      1     31    182      -216.8    
   1246      1     31    184      -216.8    
   1247      1     31    186      -216.8    
   1248      1     31    187      -216.8    
   1249      1     31    189      -202.0    
   1250      1     31    191     -0.7139E+05
   1251      1     31    193      -202.0    
   1252      1     32    194      -202.0    
   1253      1     32    196      -202.0    
   1254      1     32    198      -202.0    
   1255      1     32    200      -202.0    
   1256      1     32    201      -202.0    
   1257      1     32    203      -202.0    
   1258      1     32    205      -202.0    
   1259      1     32    207      -195.7    
   1260      1     32    208      -195.7    
   1261      1     32    210      -195.7    
   1262      1     32    212      -195.7    
   1263      1     32    214      -195.7    
   1264      1     32    215      -195.7    
   1265      1     32      4      -48.16    
   1266      1     32      6      -48.16    
   1267      1     32      8      -48.16    
   1268      1     32      9      -48.16    
   1269      1     32     11      -48.16    
   1270      1     32     13      -139.5    
   1271      1     32     15      -139.5    
   1272      1     32     16      -139.5    
   1273      1     32     18      -139.5    
   1274      1     32     20      -139.5    
   1275      1     32     22      -139.5    
   1276      1     32     23      -139.5    
   1277      1     32     25      -139.5    
   1278      1     32     27      -139.5    
   1279      1     32     29      -139.5    
   1280      1     33     31      -175.3    
   1281      1     33     32      -175.3    
   1282      1     33     34      -175.3    
   1283      1     33     36      -175.3    
   1284      1     33     38      -175.3    
   1285      1     33     39      -175.3    
   1286      1     33     41      -16.23    
   1287      1     33     43      -16.88    
   1288      1     33     45      -175.3    
   1289      1     33     46      -175.3    
   1290      1     33     48      -211.5    
   1291      1     33     50      -211.5    
   1292      1     33     52      -211.5    
   1293      1     33     53      -211.5    
   1294      1     33     55      -211.5    
   1295      1     33     57      -211.5    
   1296      1     33     59      -211.5    
   1297      1     33     60      -211.5    
   1298      1     33     62      -211.5    
   1299      1     33     64      -211.5    
   1300      1     33     66      -259.8    
   1301      1     33     68      -259.8    
   1302      1     33     69      -259.8    
   1303      1     33     71      -259.8    
   1304      1     33     73      -259.8    
   1305      1     33     75      -259.8    
   1306      1     33     76      -259.8    
   1307      1     33     78      -259.8    
   1308      1     33     80      -259.8    
   1309      1     33     82      -259.8    
   1310      1     33     83      -228.0    
   1311      1     33     85      -228.0    
   1312      1     33     87      -228.0    
   1313      1     33     89      -228.0    
   1314      1     33     90      -228.0    
   1315      1     33     92      -228.0    
   1316      1     33     94      -228.0    
   1317      1     33     96      -228.0    
   1318      1     33     97      -228.0    
   1319      1     33     99      -228.0    
   1320      1     33    101      -226.2    
   1321      1     33    103      -226.2    
   1322      1     33    105      -226.2    
   1323      1     33    106      -226.2    
   1324      1     33    108      -226.2    
   1325      1     33    110      -226.2    
   1326      1     33    112      -226.2    
   1327      1     33    113      -226.2    
   1328      1     33    115      -226.2    
   1329      1     33    117      -226.2    
   1330      1     33    119      -339.4    
   1331      1     33    120      -339.4    
   1332      1     33    122      -339.4    
   1333      1     33    124      -339.4    
   1334      1     33    126      -339.4    
   1335      1     33    127      -339.4    
   1336      1     33    129      -339.4    
   1337      1     33    131      -339.4    
   1338      1     33    133      -339.4    
   1339      1     33    134      -4116.    
   1340      1     33    136      -363.9    
   1341      1     33    138      -363.9    
   1342      1     33    140      -363.9    
   1343      1     33    142      -363.9    
   1344      1     33    143      -363.9    
   1345      1     33    145      -363.9    
   1346      1     33    147      -363.9    
   1347      1     33    149      -363.9    
   1348      1     33    150      -363.9    
   1349      1     33    152      -363.9    
   1350      1     33    154      -224.4    
   1351      1     33    156      -224.4    
   1352      1     33    157      -224.4    
   1353      1     33    159      -224.4    
   1354      1     33    161      -224.4    
   1355      1     33    163      -224.4    
   1356      1     33    164      -224.4    
   1357      1     33    166      -224.4    
   1358      1     33    168      -224.4    
   1359      1     33    170      -224.4    
   1360      1     33    171      -216.8    
   1361      1     33    173      -216.8    
   1362      1     33    175      -216.8    
   1363      1     33    177      -216.8    
   1364      1     33    179      -216.8    
   1365      1     33    180      -216.8    
   1366      1     33    182      -216.8    
   1367      1     33    184      -216.8    
   1368      1     33    186      -216.8    
   1369      1     33    187      -216.8    
   1370      1     33    189      -202.0    
   1371      1     33    191      -202.0    
   1372      1     33    193      -202.0    
   1373      1     33    194      -202.0    
   1374      1     33    196      -202.0    
   1375      1     33    198      -202.0    
   1376      1     33    200      -202.0    
   1377      1     33    201      -202.0    
   1378      1     33    203      -202.0    
   1379      1     33    205      -202.0    
   1380      1     33    207      -195.7    
   1381      1     33    208      -195.7    
   1382      1     33    210      -195.7    
   1383      1     33    212      -195.7    
   1384      1     33    214      -195.7    
   1385      1     33    215      -195.7    
   1386      1     33    217      -195.7    
   1387      1     33    219      -195.7    
   1388      1     34      4      -48.16    
   1389      1     34      6      -48.16    
   1390      1     34      8      -48.16    
   1391      1     34      9      -48.16    
   1392      1     34     11      -48.16    
   1393      1     34     13      -139.5    
   1394      1     34     15      -139.5    
   1395      1     34     16      -139.5    
   1396      1     34     18      -139.5    
   1397      1     34     20      -139.5    
   1398      1     34     22      -139.5    
   1399      1     34     23      -139.5    
   1400      1     34     25      -139.5    
   1401      1     34     27      -139.5    
   1402      1     34     29      -139.5    
   1403      1     34     30      -152.8    
   1404      1     34     32      -130.2    
   1405      1     34     34      -130.2    
   1406      1     34     36      -130.3    
   1407      1     34     38      -129.9    
   1408      1     34     39      -107.5    
   1409      1     34     41      -175.3    
   1410      1     34     43      -175.3    
   1411      1     34     45      -16.02    
   1412      1     34     46      -17.32    
   1413      1     34     48      -21.15    
   1414      1     34     50      -211.5    
   1415      1     34     52      -211.5    
   1416      1     35     53      -211.5    
   1417      1     35     55      -211.5    
   1418      1     35     57      -211.5    
   1419      1     35     59      -211.5    
   1420      1     35     60      -211.5    
   1421      1     35     62      -211.5    
   1422      1     35     64      -211.5    
   1423      1     35     66      -259.8    
   1424      1     35     67      -259.8    
   1425      1     35     69      -259.8    
   1426      1     35     71      -259.8    
   1427      1     35     73      -259.8    
   1428      1     35     75      -259.8    
   1429      1     35     76      -259.8    
   1430      1     35     78      -259.8    
   1431      1     35     80      -259.8    
   1432      1     35     82      -259.8    
   1433      1     35     83      -228.0    
   1434      1     35     85      -228.0    
   1435      1     35     87      -228.0    
   1436      1     35     89      -228.0    
   1437      1     35     90      -228.0    
   1438      1     35     92      -228.0    
   1439      1     35     94      -228.0    
   1440      1     35     96      -228.0    
   1441      1     35     97      -228.0    
   1442      1     35     99      -228.0    
   1443      1     35    101      -226.2    
   1444      1     35    103      -226.2    
   1445      1     35    104      -226.2    
   1446      1     35    106      -226.2    
   1447      1     35    108      -226.2    
   1448      1     35    110      -226.2    
   1449      1     35    112      -226.2    
   1450      1     35    113      -226.2    
   1451      1     35    115      -226.2    
   1452      1     35    117      -226.2    
   1453      1     35    119      -339.4    
   1454      1     35    120      -339.4    
   1455      1     35    122      -339.4    
   1456      1     35    124      -339.4    
   1457      1     35    126      -339.4    
   1458      1     35    127      -339.4    
   1459      1     35    129      -339.4    
   1460      1     35    131      -339.4    
   1461      1     35    133      -339.4    
   1462      1     35    134      -339.4    
   1463      1     35    136      -364.0    
   1464      1     35    138      -364.0    
   1465      1     35    140      -364.0    
   1466      1     35    141      -364.0    
   1467      1     35    143      -364.0    
   1468      1     35    145      -364.0    
   1469      1     35    147      -364.0    
   1470      1     35    149      -364.0    
   1471      1     35    150      -364.0    
   1472      1     35    152      -364.0    
   1473      1     35    154      -224.4    
   1474      1     35    156      -224.4    
   1475      1     35    157      -224.4    
   1476      1     35    159      -224.4    
   1477      1     35    161      -224.4    
   1478      1     35    163      -224.4    
   1479      1     35    164      -224.4    
   1480      1     35    166      -224.4    
   1481      1     35    168      -224.4    
   1482      1     35    170      -224.4    
   1483      1     35    171      -216.8    
   1484      1     35    173      -216.8    
   1485      1     35    175      -216.8    
   1486      1     35    177      -216.8    
   1487      1     35    178      -216.8    
   1488      1     35    180      -216.8    
   1489      1     35    182      -216.8    
   1490      1     35    184      -216.8    
   1491      1     35    186      -216.8    
   1492      1     35    187      -216.8    
   1493      1     35    189      -202.0    
   1494      1     35    191      -202.0    
   1495      1     35    193      -202.0    
   1496      1     35    194      -202.0    
   1497      1     35    196      -202.0    
   1498      1     35    198      -202.0    
   1499      1     35    200      -202.0    
   1500      1     35    201      -202.0    
   1501      1     35    203      -202.0    
   1502      1     35    205      -202.0    
   1503      1     35    207      -195.7    
   1504      1     35    208      -195.7    
   1505      1     35    210      -195.7    
   1506      1     35    212      -195.7    
   1507      1     35    214      -195.7    
   1508      1     35    215      -195.7    
   1509      1     35    217      -195.7    
   1510      1     35    219      -195.7    
   1511      1     36      4      -48.16    
   1512      1     36      6      -48.16    
   1513      1     36      8      -48.16    
   1514      1     36      9      -48.16    
   1515      1     36     11      -48.16    
   1516      1     36     13      -139.5    
   1517      1     36     15      -139.5    
   1518      1     36     16      -139.5    
   1519      1     36     18      -139.5    
   1520      1     36     20      -139.5    
   1521      1     36     22      -139.5    
   1522      1     36     23      -139.5    
   1523      1     36     25      -139.5    
   1524      1     36     27      -139.5    
   1525      1     36     29      -121.5    
   1526      1     36     30      -175.4    
   1527      1     36     32      -175.4    
   1528      1     36     34      -175.4    
   1529      1     36     36      -175.4    
   1530      1     36     38      -175.4    
   1531      1     36     39      -175.4    
   1532      1     36     41      -175.4    
   1533      1     36     43      -175.4    
   1534      1     36     45      -175.4    
   1535      1     36     46      -175.4    
   1536      1     36     48      -211.5    
   1537      1     36     50      -19.59    
   1538      1     36     52      -19.06    
   1539      1     36     53      -18.54    
   1540      1     36     55      -19.59    
   1541      1     36     57      -21.15    
   1542      1     36     59      -21.15    
   1543      1     36     60      -211.5    
   1544      1     36     62      -211.5    
   1545      1     36     64      -211.5    
   1546      1     36     66      -259.8    
   1547      1     36     67      -259.8    
   1548      1     36     69      -259.8    
   1549      1     36     71      -259.8    
   1550      1     36     73      -259.8    
   1551      1     36     75      -259.8    
   1552      1     36     76      -259.8    
   1553      1     37     78      -259.8    
   1554      1     37     80      -259.8    
   1555      1     37     82      -259.8    
   1556      1     37     83      -228.0    
   1557      1     37     85      -228.0    
   1558      1     37     87      -228.0    
   1559      1     37     89      -228.0    
   1560      1     37     90      -228.0    
   1561      1     37     92      -228.0    
   1562      1     37     94      -228.0    
   1563      1     37     96      -228.0    
   1564      1     37     97      -228.0    
   1565      1     37     99      -228.0    
   1566      1     37    101      -226.3    
   1567      1     37    103      -226.3    
   1568      1     37    104      -226.3    
   1569      1     37    106      -226.3    
   1570      1     37    108      -226.3    
   1571      1     37    110      -226.3    
   1572      1     37    112      -226.3    
   1573      1     37    113      -226.3    
   1574      1     37    115      -226.3    
   1575      1     37    117      -226.3    
   1576      1     37    119      -339.5    
   1577      1     37    120      -339.5    
   1578      1     37    122      -339.5    
   1579      1     37    124      -339.5    
   1580      1     37    126      -339.5    
   1581      1     37    127      -339.5    
   1582      1     37    129      -339.5    
   1583      1     37    131      -339.5    
   1584      1     37    133      -339.5    
   1585      1     37    134      -339.5    
   1586      1     37    136      -364.0    
   1587      1     37    138      -364.0    
   1588      1     37    140      -364.0    
   1589      1     37    141     -0.7784E+05
   1590      1     37    143      -364.0    
   1591      1     37    145      -364.0    
   1592      1     37    147      -364.0    
   1593      1     37    149      -364.0    
   1594      1     37    150      -364.0    
   1595      1     37    152      -364.0    
   1596      1     37    154      -224.4    
   1597      1     37    156      -224.4    
   1598      1     37    157      -224.4    
   1599      1     37    159      -224.4    
   1600      1     37    161      -224.4    
   1601      1     37    163      -224.4    
   1602      1     37    164      -224.4    
   1603      1     37    166      -224.4    
   1604      1     37    168      -224.4    
   1605      1     37    170      -224.4    
   1606      1     37    171      -216.8    
   1607      1     37    173      -216.8    
   1608      1     37    175      -216.8    
   1609      1     37    177      -216.8    
   1610      1     37    178      -216.8    
   1611      1     37    180      -216.8    
   1612      1     37    182      -216.8    
   1613      1     37    184      -216.8    
   1614      1     37    186      -216.8    
   1615      1     37    187      -216.8    
   1616      1     37    189      -202.1    
   1617      1     37    191      -202.1    
   1618      1     37    193      -202.1    
   1619      1     37    194      -202.1    
   1620      1     37    196      -202.1    
   1621      1     37    198      -202.1    
   1622      1     37    200      -202.1    
   1623      1     37    201      -202.1    
   1624      1     37    203      -202.1    
   1625      1     37    205      -202.1    
[...]
     1   131   254  -0.222512E+03  -0.138459E-02   0.494824E+03   0.494810E+03
     1   131   256  -0.222512E+03  -0.384996E-05   0.492184E+03   0.492184E+03
     1   133   173  -0.143681E+03  -0.196367E-05   0.859062E+03   0.859061E+03
     1   133   175  -0.143681E+03  -0.239526E-06   0.745531E+03   0.745531E+03
     1   133   176  -0.143681E+03  -0.961406E-08   0.759143E+03   0.759143E+03
     1   133   178  -0.143681E+03  -0.115566E-03   0.619679E+03   0.619674E+03
     1   133   180  -0.143681E+03  -0.389495E-04   0.623932E+03   0.623929E+03
     1   133   182  -0.143681E+03  -0.990956E-05   0.657287E+03   0.657286E+03
     1   133   183  -0.143681E+03  -0.801350E-05   0.681454E+03   0.681452E+03
     1   133   185  -0.143681E+03  -0.327806E-05   0.785899E+03   0.785898E+03
     1   133   187  -0.143681E+03  -0.140780E-05   0.881062E+03   0.881061E+03
     1   133   199  -0.177367E+03  -0.188075E-07   0.913310E+03   0.913310E+03
     1   133   201  -0.177367E+03  -0.715886E-06   0.791195E+03   0.791195E+03
     1   133   229  -0.143199E+03  -0.241638E-04   0.676383E+03   0.676381E+03
     1   133   231  -0.143199E+03  -0.700738E-05   0.658501E+03   0.658500E+03
     1   133   233  -0.143199E+03  -0.355643E-05   0.674858E+03   0.674857E+03
     1   133   235  -0.143199E+03  -0.502878E-05   0.659787E+03   0.659786E+03
     1   133   236  -0.143199E+03  -0.993246E-05   0.666474E+03   0.666472E+03
     1   133   238  -0.143199E+03  -0.321518E-05   0.688048E+03   0.688048E+03
     1   133   242  -0.125248E+03  -0.115266E-04   0.688264E+03   0.688262E+03
     1   133   244  -0.125248E+03  -0.270574E-05   0.688307E+03   0.688306E+03
     1   133   245  -0.143727E+03  -0.107840E-05   0.645477E+03   0.645476E+03
     1   133   247  -0.125248E+03  -0.122787E-05   0.583409E+03   0.583408E+03
     1   133   249  -0.125248E+03  -0.136298E-05   0.535531E+03   0.535531E+03
     1   133   251  -0.143727E+03  -0.109955E-05   0.519120E+03   0.519119E+03
     1   133   252  -0.882893E+02  -0.111240E-02   0.510918E+03   0.510898E+03
     1   133   254  -0.143727E+03  -0.129870E-05   0.524762E+03   0.524762E+03
     1   133   256  -0.143727E+03  -0.626270E-06   0.512062E+03   0.512061E+03
     1   133   258  -0.143727E+03  -0.567520E-02   0.491608E+03   0.491571E+03
     1   133   259  -0.113881E+03  -0.419160E-06   0.496164E+03   0.496163E+03
     1   135   173  -0.513170E+02  -0.105214E+00   0.841815E+03   0.841551E+03
     1   135   175  -0.143688E+03  -0.946275E-05   0.910859E+03   0.910857E+03
     1   135   176  -0.143688E+03  -0.853309E-05   0.891716E+03   0.891714E+03
     1   135   178  -0.143688E+03  -0.647603E-05   0.723022E+03   0.723020E+03
     1   135   180  -0.143688E+03  -0.470936E-05   0.745549E+03   0.745548E+03
     1   135   182  -0.125214E+03  -0.131831E-03   0.705047E+03   0.705041E+03
     1   135   183  -0.143688E+03  -0.990018E-06   0.811215E+03   0.811214E+03
     1   135   185  -0.143688E+03  -0.354740E-05   0.822644E+03   0.822643E+03
     1   135   233  -0.164334E+03  -0.299674E+02   0.682215E+03   0.679490E+03
     1   135   235  -0.143205E+03  -0.128119E+03   0.682211E+03   0.674224E+03
     1   135   244  -0.125253E+03  -0.423632E-05   0.692409E+03   0.692408E+03
     1   135   245  -0.125253E+03  -0.863274E-06   0.679167E+03   0.679167E+03
     1   135   247  -0.125253E+03  -0.123318E-05   0.594511E+03   0.594510E+03
     1   135   249  -0.106773E+03  -0.739458E-06   0.562939E+03   0.562939E+03
     1   135   251  -0.106773E+03  -0.204494E-04   0.528955E+03   0.528952E+03
     1   135   252  -0.882933E+02  -0.541600E-02   0.518474E+03   0.518429E+03
     1   135   254  -0.143733E+03  -0.200825E-05   0.531929E+03   0.531929E+03
     1   135   256  -0.143733E+03  -0.377059E+00   0.510809E+03   0.510510E+03
     1   135   258  -0.143733E+03  -0.130264E-05   0.513837E+03   0.513837E+03
     1   135   259  -0.113886E+03  -0.115164E-05   0.509470E+03   0.509469E+03
     1   135   261  -0.113886E+03  -0.300234E-04   0.492003E+03   0.492000E+03
     1   135   263  -0.113886E+03  -0.831371E+02   0.488170E+03   0.481583E+03
     1   135   265  -0.113886E+03  -0.597414E+02   0.487616E+03   0.482452E+03
     1   135   270  -0.113886E+03  -0.113578E+03   0.486387E+03   0.476690E+03
     1   137   178  -0.143694E+03  -0.102049E-04   0.945692E+03   0.945690E+03
     1   137   180  -0.143694E+03  -0.128432E-04   0.864141E+03   0.864139E+03
     1   137   182  -0.143694E+03  -0.130871E-04   0.808668E+03   0.808667E+03
     1   137   183  -0.143694E+03  -0.212318E-04   0.821808E+03   0.821805E+03
     1   137   244  -0.125259E+03  -0.184044E-05   0.684756E+03   0.684755E+03
     1   137   245  -0.125259E+03  -0.722214E-06   0.668024E+03   0.668024E+03
     1   137   247  -0.125259E+03  -0.690829E-05   0.585978E+03   0.585976E+03
     1   137   249  -0.143740E+03  -0.403370E-05   0.590049E+03   0.590048E+03
     1   137   251  -0.882973E+02  -0.235618E-03   0.537621E+03   0.537611E+03
     1   137   252  -0.143740E+03  -0.140631E-02   0.528304E+03   0.528286E+03
     1   137   254  -0.143740E+03  -0.123311E-05   0.555834E+03   0.555833E+03
     1   137   256  -0.143740E+03  -0.218232E-05   0.539310E+03   0.539310E+03
     1   137   258  -0.143740E+03  -0.613143E-05   0.524692E+03   0.524690E+03
     1   137   259  -0.113891E+03  -0.365182E-04   0.513289E+03   0.513286E+03
     1   137   261  -0.113891E+03  -0.639655E-04   0.505885E+03   0.505881E+03
     1   137   263  -0.113891E+03  -0.682831E-04   0.495338E+03   0.495333E+03
     1   137   265  -0.113891E+03  -0.114077E-05   0.495453E+03   0.495452E+03
     1   137   266  -0.113891E+03  -0.229277E-05   0.489168E+03   0.489167E+03
     1   137   270  -0.113891E+03  -0.424785E+02   0.486097E+03   0.481952E+03
     1   138   180  -0.143701E+03  -0.442328E-05   0.947246E+03   0.947245E+03
     1   138   182  -0.143701E+03  -0.529437E-05   0.837164E+03   0.837163E+03
     1   138   183  -0.125225E+03  -0.122810E-04   0.822216E+03   0.822214E+03
     1   139   245  -0.106783E+03  -0.375790E-05   0.681144E+03   0.681143E+03
     1   139   247  -0.143746E+03  -0.196063E-05   0.656334E+03   0.656333E+03
     1   139   249  -0.125265E+03  -0.316171E-05   0.581430E+03   0.581429E+03
     1   139   251  -0.125265E+03  -0.327160E-02   0.542335E+03   0.542305E+03
     1   139   252  -0.125265E+03  -0.151942E-02   0.545830E+03   0.545810E+03
     1   139   254  -0.125265E+03  -0.116843E-05   0.588889E+03   0.588889E+03
     1   139   256  -0.143746E+03  -0.384624E-05   0.565882E+03   0.565881E+03
     1   139   258  -0.143746E+03  -0.160468E-05   0.564286E+03   0.564286E+03
     1   139   259  -0.113896E+03  -0.296544E-05   0.539858E+03   0.539857E+03
     1   139   261  -0.113896E+03  -0.433354E-03   0.516892E+03   0.516881E+03
     1   139   263  -0.113896E+03  -0.313148E-05   0.511834E+03   0.511833E+03
     1   139   265  -0.113896E+03  -0.124712E-03   0.495649E+03   0.495643E+03
     1   139   266  -0.992524E+02  -0.336578E-02   0.490923E+03   0.490889E+03
     1   139   268  -0.113896E+03  -0.320766E-05   0.492953E+03   0.492952E+03
     1   139   270  -0.113896E+03  -0.459476E-05   0.487906E+03   0.487905E+03
     1   139   272  -0.113896E+03  -0.100207E+03   0.484892E+03   0.477056E+03
     1   139   291  -0.181571E+03  -0.169992E+03   0.481651E+03   0.473190E+03
     1   139   295  -0.242927E+03  -0.724986E+02   0.480050E+03   0.476429E+03
     1   139   296  -0.242927E+03  -0.193998E+03   0.479173E+03   0.472056E+03
     1   140   182  -0.143707E+03  -0.104965E-04   0.836675E+03   0.836674E+03
     1   140   245  -0.125270E+03  -0.102702E-04   0.680695E+03   0.680694E+03
     1   140   247  -0.125270E+03  -0.259042E-05   0.666307E+03   0.666306E+03
     1   140   249  -0.125270E+03  -0.520977E-05   0.590124E+03   0.590122E+03
     1   140   251  -0.143753E+03  -0.419875E-05   0.562334E+03   0.562333E+03
     1   140   252  -0.125270E+03  -0.335345E-03   0.552152E+03   0.552143E+03
     1   140   254  -0.125270E+03  -0.130930E-05   0.589215E+03   0.589214E+03
     1   140   256  -0.143753E+03  -0.114763E-03   0.567270E+03   0.567265E+03
     1   140   258  -0.143753E+03  -0.963787E-06   0.591654E+03   0.591653E+03
     1   140   259  -0.113901E+03  -0.108122E-03   0.540679E+03   0.540674E+03
     1   140   261  -0.113901E+03  -0.174811E-05   0.539368E+03   0.539367E+03
     1   140   263  -0.113901E+03  -0.180323E-05   0.525382E+03   0.525381E+03
     1   140   265  -0.113901E+03  -0.513350E-04   0.501167E+03   0.501163E+03
     1   140   266  -0.992569E+02  -0.103384E-02   0.495900E+03   0.495881E+03
     1   140   268  -0.113901E+03  -0.470551E-05   0.497368E+03   0.497367E+03
     1   140   270  -0.113901E+03  -0.779212E-05   0.487614E+03   0.487612E+03
     1   140   272  -0.113901E+03  -0.113194E+03   0.484728E+03   0.475190E+03
     1   140   291  -0.181579E+03  -0.655259E-06   0.486857E+03   0.486857E+03
     1   140   298  -0.242938E+03  -0.198319E+03   0.478287E+03   0.471024E+03
     1   142   245  -0.125276E+03  -0.199397E-05   0.678715E+03   0.678714E+03
     1   142   247  -0.125276E+03  -0.211675E-05   0.666899E+03   0.666898E+03
     1   142   249  -0.125276E+03  -0.173670E-05   0.628405E+03   0.628405E+03
     1   142   251  -0.125276E+03  -0.290628E-05   0.634062E+03   0.634061E+03
     1   142   252  -0.125276E+03  -0.237789E-05   0.619144E+03   0.619143E+03
     1   142   254  -0.125276E+03  -0.401484E-06   0.671643E+03   0.671643E+03
     1   142   256  -0.328593E+02  -0.304757E-06   0.659048E+03   0.659048E+03
     1   142   258  -0.143760E+03  -0.408230E-06   0.610667E+03   0.610667E+03
     1   142   259  -0.113907E+03  -0.486612E-07   0.633738E+03   0.633738E+03
     1   142   261  -0.113907E+03  -0.112816E+03   0.600067E+03   0.590643E+03
     1   142   263  -0.113907E+03  -0.246606E-05   0.562806E+03   0.562805E+03
     1   142   265  -0.992614E+02  -0.898515E-04   0.517505E+03   0.517500E+03
     1   142   266  -0.113907E+03  -0.462420E-02   0.509259E+03   0.509222E+03
     1   142   268  -0.113907E+03  -0.910860E-04   0.499124E+03   0.499119E+03
     1   142   270  -0.113907E+03  -0.584713E+01   0.484777E+03   0.483405E+03
     1   142   272  -0.113907E+03  -0.102256E+03   0.484601E+03   0.476583E+03
     1   144   249  -0.125282E+03  -0.305079E-04   0.660586E+03   0.660583E+03
     1   144   251  -0.143766E+03  -0.256737E-03   0.660436E+03   0.660429E+03
     1   144   252  -0.106798E+03  -0.534528E+01   0.660438E+03   0.659083E+03
     1   144   254  -0.125282E+03  -0.310969E+01   0.660440E+03   0.659500E+03
     1   144   256  -0.125282E+03  -0.139741E-05   0.667358E+03   0.667357E+03
     1   144   258  -0.143766E+03  -0.195774E-05   0.646667E+03   0.646667E+03
     1   144   259  -0.113912E+03  -0.256828E-05   0.633215E+03   0.633214E+03
     1   144   261  -0.113912E+03  -0.137864E-05   0.613524E+03   0.613524E+03
     1   144   263  -0.846202E+02  -0.617421E-05   0.550696E+03   0.550695E+03
     1   144   265  -0.113912E+03  -0.186963E-02   0.531238E+03   0.531214E+03
     1   144   266  -0.113912E+03  -0.532083E-05   0.530946E+03   0.530945E+03
     1   144   268  -0.113912E+03  -0.223109E-05   0.513929E+03   0.513929E+03
     1   144   270  -0.113912E+03  -0.705153E-06   0.511739E+03   0.511738E+03
     1   144   272  -0.113912E+03  -0.605327E+00   0.484594E+03   0.484167E+03
     1   144   274  -0.113912E+03  -0.752257E+02   0.484372E+03   0.478286E+03
     1   144   275  -0.113912E+03  -0.104534E+03   0.484292E+03   0.476056E+03
     1   144   288  -0.181596E+03  -0.169956E+03   0.483385E+03   0.474929E+03
     1   146   254  -0.125288E+03  -0.632333E+02   0.660436E+03   0.655405E+03
     1   146   256  -0.125288E+03  -0.136202E-05   0.664096E+03   0.664095E+03
     1   146   258  -0.125288E+03  -0.298824E-05   0.641977E+03   0.641976E+03
     1   146   259  -0.992705E+02  -0.657576E-05   0.625073E+03   0.625071E+03
     1   146   261  -0.846240E+02  -0.396946E-04   0.598194E+03   0.598190E+03
     1   146   263  -0.113917E+03  -0.304873E-03   0.567704E+03   0.567695E+03
     1   146   265  -0.113917E+03  -0.102876E-05   0.644620E+03   0.644619E+03
     1   146   266  -0.113917E+03  -0.120479E-05   0.612223E+03   0.612222E+03
     1   146   268  -0.113917E+03  -0.275547E-05   0.537168E+03   0.537167E+03
     1   146   270  -0.113917E+03  -0.921412E-05   0.511621E+03   0.511619E+03
     1   146   272  -0.113917E+03  -0.320025E-03   0.492343E+03   0.492333E+03
     1   146   274  -0.113917E+03  -0.217777E-04   0.486931E+03   0.486929E+03
     1   146   275  -0.113917E+03  -0.210038E-03   0.484897E+03   0.484889E+03
     1   146   281  -0.181604E+03  -0.180504E+03   0.483877E+03   0.474333E+03
     1   146   282  -0.181604E+03  -0.117218E+03   0.483816E+03   0.477833E+03
     1   146   286  -0.181604E+03  -0.637305E-06   0.486572E+03   0.486571E+03
     1   146   288  -0.181604E+03  -0.642373E-06   0.493119E+03   0.493119E+03
     1   148   256  -0.125293E+03  -0.129009E-05   0.664929E+03   0.664929E+03
     1   148   258  -0.125293E+03  -0.106081E-05   0.664195E+03   0.664195E+03
     1   148   259  -0.113922E+03  -0.159329E-05   0.660620E+03   0.660619E+03
     1   148   261  -0.113922E+03  -0.121571E-05   0.647382E+03   0.647381E+03
     1   148   263  -0.113922E+03  -0.246773E-05   0.659862E+03   0.659861E+03
     1   148   265  -0.113922E+03  -0.224852E-05   0.638525E+03   0.638524E+03
     1   148   266  -0.113922E+03  -0.309284E-05   0.614140E+03   0.614139E+03
     1   148   268  -0.113922E+03  -0.317663E-06   0.587143E+03   0.587143E+03
     1   148   270  -0.113922E+03  -0.177188E-05   0.542739E+03   0.542738E+03
     1   148   272  -0.113922E+03  -0.868139E-06   0.537584E+03   0.537583E+03
     1   148   274  -0.113922E+03  -0.201140E-05   0.508858E+03   0.508857E+03
     1   148   275  -0.113922E+03  -0.135179E-04   0.489419E+03   0.489417E+03
     1   148   277  -0.181613E+03  -0.884516E+02   0.484175E+03   0.479262E+03
     1   148   279  -0.181613E+03  -0.904770E-06   0.491776E+03   0.491776E+03
     1   148   281  -0.181613E+03  -0.325541E-04   0.484669E+03   0.484667E+03
     1   148   282  -0.181613E+03  -0.859131E-05   0.484471E+03   0.484469E+03
     1   148   284  -0.181613E+03  -0.717702E+01   0.483744E+03   0.482548E+03
     1   148   286  -0.181613E+03  -0.401879E-05   0.486858E+03   0.486857E+03
     1   148   288  -0.181613E+03  -0.153982E-05   0.524613E+03   0.524612E+03
     1   150   259  -0.113927E+03  -0.181234E+02   0.664280E+03   0.661755E+03
     1   150   261  -0.113927E+03  -0.364333E-05   0.662739E+03   0.662738E+03
     1   150   263  -0.113927E+03  -0.248838E-05   0.662334E+03   0.662333E+03
     1   150   265  -0.113927E+03  -0.337576E-05   0.645613E+03   0.645612E+03
     1   150   266  -0.113927E+03  -0.121061E-05   0.649191E+03   0.649190E+03
     1   150   268  -0.113927E+03  -0.132779E-05   0.593388E+03   0.593388E+03
     1   150   270  -0.113927E+03  -0.198725E-06   0.579327E+03   0.579326E+03
     1   150   272  -0.113927E+03  -0.139231E-05   0.564429E+03   0.564429E+03
     1   150   274  -0.113927E+03  -0.248345E-05   0.515980E+03   0.515980E+03
     1   150   275  -0.113927E+03  -0.201685E-04   0.500645E+03   0.500643E+03
     1   150   277  -0.181621E+03  -0.349978E-05   0.503797E+03   0.503796E+03
     1   150   279  -0.181621E+03  -0.591619E-03   0.492317E+03   0.492306E+03
     1   150   281  -0.181621E+03  -0.151675E-05   0.516834E+03   0.516833E+03
     1   150   282  -0.181621E+03  -0.535732E-06   0.524225E+03   0.524224E+03
     1   150   284  -0.181621E+03  -0.709267E-06   0.511119E+03   0.511119E+03
     1   150   286  -0.181621E+03  -0.308356E-05   0.498389E+03   0.498388E+03
     1   150   288  -0.181621E+03  -0.912417E-05   0.511389E+03   0.511388E+03
     1   152   268  -0.145195E+03  -0.201713E-05   0.630715E+03   0.630714E+03
     1   152   270  -0.145195E+03  -0.408581E-05   0.591593E+03   0.591592E+03
     1   152   272  -0.145195E+03  -0.528252E-05   0.586739E+03   0.586738E+03
     1   152   274  -0.145195E+03  -0.159109E-05   0.603490E+03   0.603490E+03
     1   152   275  -0.145195E+03  -0.169974E-05   0.553834E+03   0.553833E+03
     1   152   277  -0.834283E+02  -0.554260E-05   0.508757E+03   0.508755E+03
     1   152   279  -0.834283E+02  -0.227679E-05   0.503430E+03   0.503429E+03
     1   152   281  -0.834283E+02  -0.464117E-04   0.507600E+03   0.507595E+03
     1   152   282  -0.834283E+02  -0.234493E-05   0.516491E+03   0.516490E+03
     1   152   284  -0.834283E+02  -0.505072E-06   0.538619E+03   0.538619E+03
     1   152   286  -0.834283E+02  -0.626634E-06   0.536184E+03   0.536184E+03
     1   153   274  -0.145201E+03  -0.298592E-05   0.608525E+03   0.608524E+03
     1   153   275  -0.145201E+03  -0.112143E-06   0.587167E+03   0.587167E+03
     1   153   277  -0.834321E+02  -0.424054E-05   0.524716E+03   0.524714E+03
     1   153   279  -0.834321E+02  -0.166821E-05   0.516406E+03   0.516405E+03
     1   153   281  -0.834321E+02  -0.958113E-05   0.521557E+03   0.521555E+03
     1   153   282  -0.834321E+02  -0.226422E-06   0.539429E+03   0.539429E+03
     1   155   279  -0.834358E+02  -0.145521E-05   0.569552E+03   0.569551E+03
     1   155   281  -0.834358E+02  -0.105331E-05   0.542405E+03   0.542405E+03
     1   155   282  -0.834358E+02  -0.991978E-06   0.552246E+03   0.552245E+03
     1   157   279  -0.834396E+02  -0.161326E+02   0.578531E+03   0.575714E+03
     1   157   281  -0.834396E+02  -0.173525E-05   0.596739E+03   0.596738E+03
 

         ****FAILED TO MEET SOLVER CONVERGENCE CRITERIA IN TIME STEP    1 OF STRESS PERIOD    1****

 HEAD WILL BE SAVED ON UNIT   51 AT END OF TIME STEP    1, STRESS PERIOD    1
1
  VOLUMETRIC BUDGET FOR ENTIRE MODEL AT END OF TIME STEP    1, STRESS PERIOD   1
  ------------------------------------------------------------------------------

     CUMULATIVE VOLUMES      L**3       RATES FOR THIS TIME STEP      L**3/T
     ------------------                 ------------------------

           IN:                                      IN:
           ---                                      ---
             STORAGE =     4436592.5000               STORAGE =     4436592.5000
       CONSTANT HEAD =           0.0000         CONSTANT HEAD =           0.0000
               WELLS =      290942.5000                 WELLS =      290942.5000
              DRAINS =           0.0000                DRAINS =           0.0000
            RECHARGE =     2671892.5000              RECHARGE =     2671892.5000

            TOTAL IN =     7399427.5000              TOTAL IN =     7399427.5000

          OUT:                                     OUT:
          ----                                     ----
             STORAGE =     2136352.7500               STORAGE =     2136352.7500
       CONSTANT HEAD =           0.0000         CONSTANT HEAD =           0.0000
               WELLS =     1726992.1250                 WELLS =     1726992.1250
              DRAINS =     3536081.7500                DRAINS =     3536081.7500
            RECHARGE =           0.0000              RECHARGE =           0.0000

           TOTAL OUT =     7399427.0000             TOTAL OUT =     7399427.0000

            IN - OUT =           0.5000              IN - OUT =           0.5000

 PERCENT DISCREPANCY =           0.00     PERCENT DISCREPANCY =           0.00






         TIME SUMMARY AT END OF TIME STEP    1 IN STRESS PERIOD    1
                    SECONDS     MINUTES      HOURS       DAYS        YEARS
                    -----------------------------------------------------------
   TIME STEP LENGTH  86400.      1440.0      24.000      1.0000     2.73785E-03
 STRESS PERIOD TIME  86400.      1440.0      24.000      1.0000     2.73785E-03
         TOTAL TIME  86400.      1440.0      24.000      1.0000     2.73785E-03
1
 CONTINUING EXECUTION

 Run end date and time (yyyy/mm/dd hh:mm:ss): 2019/12/17 14:57:43
 Elapsed run time:  1.870 Seconds

