                                  MODFLOW-NWT-SWR1 
      U.S. GEOLOGICAL SURVEY MODULAR FINITE-DIFFERENCE GROUNDWATER-FLOW MODEL
                             VERSION 1.1.4 4/01/2018
                    BASED ON MODFLOW-2005 VERSION 1.12.00 02/03/2017

 LIST FILE: Bhima_transient.list
                         UNIT    2

 OPENING Bhima_transient.dis
 FILE TYPE:DIS   UNIT   11   STATUS:OLD    
 FORMAT:FORMATTED              ACCESS:SEQUENTIAL          

 OPENING Bhima_transient.bas
 FILE TYPE:BAS6   UNIT   13   STATUS:OLD    
 FORMAT:FORMATTED              ACCESS:SEQUENTIAL          

 OPENING Bhima_transient.upw
 FILE TYPE:UPW   UNIT   31   STATUS:OLD    
 FORMAT:FORMATTED              ACCESS:SEQUENTIAL          

 OPENING Bhima_transient.nwt
 FILE TYPE:NWT   UNIT   32   STATUS:OLD    
 FORMAT:FORMATTED              ACCESS:SEQUENTIAL          

 OPENING Bhima_transient.drn
 FILE TYPE:DRN   UNIT   21   STATUS:OLD    
 FORMAT:FORMATTED              ACCESS:SEQUENTIAL          

 OPENING Bhima_transient.rch
 FILE TYPE:RCH   UNIT   19   STATUS:OLD    
 FORMAT:FORMATTED              ACCESS:SEQUENTIAL          

 OPENING Bhima_transient.wel
 FILE TYPE:WEL   UNIT   20   STATUS:OLD    
 FORMAT:FORMATTED              ACCESS:SEQUENTIAL          

 OPENING Bhima_transient.oc
 FILE TYPE:OC   UNIT   14   STATUS:OLD    
 FORMAT:FORMATTED              ACCESS:SEQUENTIAL          

 OPENING Bhima_transient.hds
 FILE TYPE:DATA(BINARY)   UNIT   51   STATUS:REPLACE
 FORMAT:BINARY                 ACCESS:SEQUENTIAL          

 BAS -- BASIC PACKAGE, VERSION 1.1.4, 4/01/2018 INPUT READ FROM UNIT   13
 
 MODFLOW was compiled using mixed precision
 Precision of REAL variables:           6
 Precision of DOUBLE PRECISION variables:          15

 DISCRETIZATION INPUT DATA READ FROM UNIT   11
 # DIS package for  MODFLOW-NWT, generated by Flopy.
    1 LAYERS       158 ROWS       342 COLUMNS
    1 STRESS PERIOD(S) IN SIMULATION
 MODEL TIME UNIT IS DAYS
 MODEL LENGTH UNIT IS METERS
  Confining bed flag for each layer:
   0

                     DELR =   500.000    

                     DELC =   500.000    



           TOP ELEVATION OF LAYER 1
 READING ON UNIT   11 WITH FORMAT: (342E15.6)          



             MODEL LAYER BOTTOM EL. FOR LAYER   1
 READING ON UNIT   11 WITH FORMAT: (342E15.6)          


 STRESS PERIOD     LENGTH       TIME STEPS     MULTIPLIER FOR DELT    SS FLAG
 ----------------------------------------------------------------------------
        1         1.000000          1                    1.000         TR

 TRANSIENT SIMULATION



 
 # BAS6 package for  MODFLOW-NWT, generated by Flopy.                            
 THE FREE FORMAT OPTION HAS BEEN SELECTED



                     BOUNDARY ARRAY FOR LAYER   1
 READING ON UNIT   13 WITH FORMAT: (342I10)            

 AQUIFER HEAD WILL BE SET TO  -999.99     AT ALL NO-FLOW NODES (IBOUND=0).



                       INITIAL HEAD FOR LAYER   1
 READING ON UNIT   13 WITH FORMAT: (342E15.6)          
 # OC package for  MODFLOW-NWT, generated by Flopy.

 OUTPUT CONTROL IS SPECIFIED ONLY AT TIME STEPS FOR WHICH OUTPUT IS DESIRED
 COMPACT CELL-BY-CELL BUDGET FILES WILL BE WRITTEN
 AUXILIARY DATA WILL BE SAVED IN CELL-BY-CELL BUDGET FILES
 HEAD PRINT FORMAT CODE IS   0    DRAWDOWN PRINT FORMAT CODE IS   0
 HEADS WILL BE SAVED ON UNIT   51    DRAWDOWNS WILL BE SAVED ON UNIT    0
 # NWT package for  MODFLOW-NWT, generated by Flopy.

 NWT1 -- Newton Solver, VERSION 1.1.4, 4/01/2018
         INPUT READ FROM UNIT 32

 COMPLEX OPTION:
 DEFAULT SOLVER INPUT VALUES REFLECT STRONGLY NONLINEAR MODEL
 ***GMRES linear solver will be used***
 
   CONVERGENCE CRITERION OF   0.100000E-01 FOR HEAD SOLUTION
   AND A TOLERANCE OF   0.350000E+04 FOR FLOW SOLUTION AND 
   A MAXIMUM OF   100 OUTER ITERATIONS. 


   D-B-D REDUCTION FACTOR OF    0.850000E+00 AND 
   A D-B-D INCREASE FACTOR OF    0.100000E-04 AND 
   A D-B-D RELAXATION OF    0.000000E+00 AND 
   A MOMENTUM FACTOR OF    0.100000E+00 .


   BACKTRACKING IS ACTIVE 
   THE MAXIMUM NUMBER OF BACKTRACKS IS    50 AND 
   THE BACKTRACKING TOLERANCE IS    0.110000E+01 AND
   THE BACKTRACKING REDUCTION FACTOR IS    0.700000E+00

 GMRES -- LINEAR SOLUTION BY GMRES PACKAGE 
     adapted for HYDROTHERM by Kipp and others (2008)
     using software originally developed by Saad (1990) 32
     using algorithms described in Saad (2003)

 UPW1 -- UPSTREAM WEIGHTING FLOW PACKAGE, VERSION 1.1.4, 4/01/2018
         INPUT READ FROM UNIT 31

 # UPW package for  MODFLOW-NWT, generated by Flopy.
 No named parameters

   LAYER FLAGS:
 LAYER       LAYTYP          LAYAVG    CHANI           LAYVKA           LAYWET
 ---------------------------------------------------------------------------
    1             1             0     1.000E+00             1             0

   INTERPRETATION OF LAYER FLAGS:
                        INTERBLOCK     HORIZONTAL    DATA IN
         LAYER TYPE   TRANSMISSIVITY   ANISOTROPY   ARRAY VKA   WETTABILITY
 LAYER   (LAYTYP)        (LAYAVG)      (CHANI)     (LAYVKA)       (LAYWET)
 ---------------------------------------------------------------------------
    1   CONVERTIBLE      HARMONIC     1.000E+00    ANISOTROPY  NON-WETTABLE



              HYD. COND. ALONG ROWS FOR LAYER   1
 READING ON UNIT   31 WITH FORMAT: (342E15.6)          

  HORIZ. TO VERTICAL ANI. =   5.00000     FOR LAYER   1



                   SPECIFIC STORAGE FOR LAYER   1
 READING ON UNIT   31 WITH FORMAT: (342E15.6)          

           SPECIFIC YIELD =  8.000000E-02 FOR LAYER   1

 WEL -- WELL PACKAGE FOR NWT VERSION 1.1.4,  4/01/2018 INPUT READ FROM UNIT   20
 # WEL package for  MODFLOW-NWT, generated by Flopy.
 No named parameters
 MAXIMUM OF  10012 ACTIVE WELLS AT ONE TIME
 No named parameters
  PHIRAMP WILL BE SET TO A DEFAULT VALUE OF 1.0E-5
  WELLS WITH REDUCED PUMPING WILL BE REPORTED TO THE MAIN LISTING FILE


     0 Well parameters

 DRN -- DRAIN PACKAGE, VERSION 7, 5/2/2005 INPUT READ FROM UNIT   21
 # DRN package for  MODFLOW-NWT, generated by Flopy.
 No named parameters
 MAXIMUM OF  54036 ACTIVE DRAINS AT ONE TIME
 LISTS OF DRAIN CELLS WILL NOT BE PRINTED


     0 Drain parameters

 RCH -- RECHARGE PACKAGE, VERSION 7, 5/2/2005 INPUT READ FROM UNIT   19
 # RCH package for  MODFLOW-NWT, generated by Flopy.
 No named parameters
 OPTION 3 -- RECHARGE TO HIGHEST ACTIVE NODE IN EACH VERTICAL COLUMN


     0 Recharge parameters
1
                            STRESS PERIOD NO.    1, LENGTH =   1.000000    
                            -----------------------------------------------

                              NUMBER OF TIME STEPS =     1

                               MULTIPLIER FOR DELT =     1.000

                            INITIAL TIME STEP SIZE =   1.000000    

 WELL NO.  LAYER   ROW   COL   STRESS RATE         
 --------------------------------------------------
      1      1      2    149      -318.4    
      2      1      3    105      -534.6    
      3      1      3    106      -534.6    
      4      1      4    136      -3128.    
      5      1      4    140      -7038.    
      6      1      4    142      -5827.    
      7      1      4    143      -7986.    
      8      1      4    145      -8950.    
      9      1      4    147      -4286.    
     10      1      4    149      -2125.    
     11      1      4    150      -232.3    
     12      1      4    152      -232.3    
     13      1      4    154      -180.4    
     14      1      4    156     -0.1069E+06
     15      1      5    103      -534.6    
     16      1      5    105      -8146.    
     17      1      5    106      -534.6    
     18      1      5    108      -534.6    
     19      1      5    117      -3053.    
     20      1      5    119      -228.8    
     21      1      5    121     -0.8575E+05
     22      1      5    122      -2600.    
     23      1      5    124      -228.8    
     24      1      5    126      -1694.    
     25      1      5    128      -228.8    
     26      1      5    129      -228.8    
     27      1      5    131      -228.8    
     28      1      5    133      -228.8    
     29      1      5    135     -0.1201E+06
     30      1      5    136      -232.3    
     31      1      5    138      -9605.    
     32      1      5    140      -5448.    
     33      1      5    142      -5638.    
     34      1      5    143      -6114.    
     35      1      6    145     -0.1316E+05
     36      1      6    147      -8421.    
     37      1      6    149      -2840.    
     38      1      6    150      -6760.    
     39      1      6    152      -5820.    
     40      1      6    154      -2502.    
     41      1      6    156      -3659.    
     42      1      7     78     -0.5009E+05
     43      1      7     80      -5561.    
     44      1      7     82      -5562.    
     45      1      7     84     -0.3214E+05
     46      1      7     85     -0.2636E+05
     47      1      7     87      -6780.    
     48      1      7     89      -4228.    
     49      1      7     91     -0.9151E+05
     50      1      7     92      -5273.    
     51      1      7     94      -5984.    
     52      1      7     96      -296.5    
     53      1      7     98      -8778.    
     54      1      7     99      -5000.    
     55      1      7    101      -5894.    
     56      1      7    103      -3470.    
     57      1      7    105      -6405.    
     58      1      7    106      -1721.    
     59      1      7    108      -534.7    
     60      1      7    110      -2584.    
     61      1      7    112      -534.7    
     62      1      7    113      -534.7    
     63      1      7    115      -534.7    
     64      1      7    117      -534.7    
     65      1      7    119      -6295.    
     66      1      7    120      -228.8    
     67      1      7    122      -228.8    
     68      1      7    124      -3510.    
     69      1      7    126      -228.8    
     70      1      7    128      -6255.    
     71      1      7    129      -6914.    
     72      1      7    131      -228.8    
     73      1      7    133      -8519.    
     74      1      7    135     -0.1192E+06
     75      1      7    136      -232.4    
     76      1      7    138     -0.1078E+05
     77      1      7    140      -8562.    
     78      1      7    142      -5083.    
     79      1      7    143      -232.4    
     80      1      7    145     -0.1318E+05
     81      1      7    147      -9379.    
     82      1      7    149      -232.4    
     83      1      7    150      -232.4    
     84      1      7    152      -7612.    
     85      1      7    154      -5970.    
     86      1      7    156      -180.4    
     87      1      7    157      -4444.    
     88      1      9     66      -330.1    
     89      1      9     68      -330.1    
     90      1      9     69      -8653.    
     91      1      9     71      -5503.    
     92      1      9     73      -330.1    
     93      1      9     75      -330.1    
     94      1      9     76      -330.1    
     95      1      9     78      -4382.    
     96      1      9     80      -6211.    
     97      1      9     82      -7872.    
     98      1      9     84      -296.5    
     99      1      9     85      -296.5    
    100      1      9     87     -0.3694E+05
    101      1      9     89      -296.5    
    102      1      9     91     -0.9707E+05
    103      1      9     92      -296.5    
    104      1      9     94      -6460.    
    105      1      9     96      -8750.    
    106      1      9     98      -5482.    
    107      1      9     99      -6443.    
    108      1      9    101      -534.7    
    109      1      9    103      -6269.    
    110      1      9    105      -7865.    
    111      1      9    106      -6443.    
    112      1      9    108     -0.8515E+05
    113      1      9    110      -534.7    
    114      1      9    112      -2275.    
    115      1      9    113      -534.7    
    116      1      9    115      -534.7    
    117      1      9    117      -534.7    
    118      1      9    119      -228.9    
    119      1      9    120      -1651.    
    120      1      9    122      -228.9    
    121      1      9    124      -228.9    
    122      1      9    126      -228.9    
    123      1      9    128      -228.9    
    124      1      9    129      -228.9    
    125      1      9    131      -7667.    
    126      1      9    133      -2707.    
    127      1      9    135      -228.9    
    128      1      9    136      -5787.    
    129      1      9    138      -7181.    
    130      1      9    140     -0.1667E+05
    131      1      9    142      -7015.    
    132      1      9    143      -6552.    
    133      1      9    145      -232.4    
    134      1      9    147     -0.1178E+05
    135      1      9    149      -7459.    
    136      1      9    150      -9770.    
    137      1      9    152      -232.4    
    138      1      9    154      -180.5    
    139      1      9    156      -7149.    
    140      1      9    157      -3657.    
    141      1      9    159      -3739.    
    142      1     11     61      -6732.    
    143      1     11     62      -5956.    
    144      1     11     64      -283.7    
    145      1     11     66     -0.4939E+05
    146      1     11     68      -8334.    
    147      1     11     69      -5017.    
    148      1     11     71      -5539.    
    149      1     11     73      -330.1    
    150      1     11     75      -6114.    
    151      1     11     76      -6312.    
    152      1     11     78      -6944.    
    153      1     11     80      -330.1    
    154      1     11     82      -330.1    
    155      1     11     83     -0.8871E+05
    156      1     11     85     -0.1154E+06
    157      1     11     87     -0.1007E+06
    158      1     11     89     -0.7072E+05
    159      1     11     91     -0.9182E+05
    160      1     11     92     -0.9991E+05
    161      1     11     94      -296.5    
    162      1     11     96      -7352.    
    163      1     11     98      -8204.    
    164      1     11     99      -3891.    
    165      1     11    101      -534.7    
    166      1     11    103      -534.7    
    167      1     11    105      -534.7    
    168      1     11    106      -534.7    
    169      1     11    108      -534.7    
    170      1     11    110      -534.7    
    171      1     11    112      -4325.    
    172      1     11    113      -534.7    
    173      1     11    115      -6431.    
    174      1     11    117      -534.7    
    175      1     11    119      -228.9    
    176      1     11    120      -228.9    
    177      1     11    122      -2765.    
    178      1     11    124      -228.9    
    179      1     11    126      -228.9    
    180      1     11    128      -4387.    
    181      1     11    129      -228.9    
    182      1     11    131      -228.9    
    183      1     11    133      -228.9    
    184      1     11    135      -9737.    
    185      1     11    136      -9250.    
    186      1     11    138      -7062.    
    187      1     11    140     -0.1143E+05
    188      1     11    142      -6240.    
    189      1     11    143      -5691.    
    190      1     11    145      -6537.    
    191      1     11    147     -0.1386E+05
    192      1     11    149      -9278.    
    193      1     11    150      -5811.    
    194      1     11    152      -6865.    
    195      1     11    154      -4410.    
    196      1     11    156      -180.5    
    197      1     11    157      -4885.    
    198      1     11    159      -1551.    
    199      1     11    161      -2811.    
    200      1     11    163      -5094.    
    201      1     11    164      -180.5    
    202      1     12     59      -7837.    
    203      1     12     61      -283.7    
    204      1     12     62      -283.7    
    205      1     12     64      -5233.    
    206      1     12     66      -5405.    
    207      1     12     68      -5965.    
    208      1     12     69      -7405.    
    209      1     12     71      -6458.    
    210      1     12     73      -7541.    
    211      1     13     75      -330.2    
    212      1     13     76      -6116.    
    213      1     13     78     -0.1055E+05
    214      1     13     80      -330.2    
    215      1     13     82      -330.2    
    216      1     13     83     -0.1112E+05
    217      1     13     85      -296.6    
    218      1     13     87     -0.1121E+06
    219      1     13     89     -0.1197E+06
    220      1     13     91     -0.1198E+06
    221      1     13     92      -296.6    
    222      1     13     94      -8598.    
    223      1     13     96      -6774.    
    224      1     13     98      -6133.    
    225      1     13     99      -7755.    
    226      1     13    101      -534.7    
    227      1     13    103      -534.7    
    228      1     13    105      -534.7    
    229      1     13    106     -0.9068E+05
    230      1     13    108      -8314.    
    231      1     13    110      -8847.    
    232      1     13    112      -534.7    
    233      1     13    113      -5283.    
    234      1     13    115      -4670.    
    235      1     13    117      -534.7    
    236      1     13    119      -228.9    
    237      1     13    120      -228.9    
    238      1     13    122      -228.9    
    239      1     13    124      -228.9    
    240      1     13    126     -0.1275E+06
    241      1     13    128      -228.9    
    242      1     13    129      -2151.    
    243      1     13    131      -228.9    
    244      1     13    133      -228.9    
    245      1     13    135      -228.9    
    246      1     13    136      -6841.    
    247      1     13    138      -7160.    
    248      1     13    140      -7740.    
    249      1     13    142      -5177.    
    250      1     13    143      -5346.    
    251      1     13    145      -3827.    
    252      1     13    147      -8473.    
    253      1     13    149      -6510.    
    254      1     13    150      -7830.    
    255      1     13    152      -232.4    
    256      1     13    154      -180.5    
    257      1     13    156      -180.5    
    258      1     13    157      -6958.    
    259      1     13    159      -180.5    
    260      1     13    161      -4632.    
    261      1     13    163      -4806.    
    262      1     13    164     -0.9858E+05
    263      1     14     55      -283.7    
    264      1     14     57      -283.7    
    265      1     14     59      -6462.    
    266      1     14     61      -283.7    
    267      1     14     62      -283.7    
    268      1     14     64      -5191.    
    269      1     14     66      -5927.    
    270      1     14     68      -8568.    
    271      1     14     69      -5726.    
    272      1     14     71      -9519.    
    273      1     14     73      -6259.    
    274      1     14     75      -330.2    
    275      1     14     76      -4632.    
    276      1     14     78      -6088.    
    277      1     14     80      -330.2    
    278      1     14     82      -6682.    
    279      1     14     83      -6827.    
    280      1     14     85      -296.6    
    281      1     14     87      -296.6    
    282      1     14     89      -296.6    
    283      1     14     91      -6571.    
    284      1     14     92      -4073.    
    285      1     14     94      -296.6    
    286      1     14     96      -7077.    
    287      1     14     98      -296.6    
    288      1     14     99      -7236.    
    289      1     15    101      -534.8    
    290      1     15    103      -534.8    
    291      1     15    105      -534.8    
    292      1     15    106      -534.8    
    293      1     15    108     -0.8428E+05
    294      1     15    110      -534.8    
    295      1     15    112      -534.8    
    296      1     15    113      -8521.    
    297      1     15    115      -8459.    
    298      1     15    117      -2699.    
    299      1     15    119      -4262.    
    300      1     15    120      -1960.    
    301      1     15    122      -228.9    
    302      1     15    124      -6002.    
    303      1     15    126      -4833.    
    304      1     15    127      -228.9    
    305      1     15    129      -6572.    
    306      1     15    131      -2839.    
    307      1     15    133      -228.9    
    308      1     15    135      -7165.    
    309      1     15    136      -5769.    
    310      1     15    138      -9620.    
    311      1     15    140     -0.1557E+05
    312      1     15    142     -0.1490E+05
    313      1     15    143      -6258.    
    314      1     15    145      -7048.    
    315      1     15    147      -7108.    
    316      1     15    149      -8077.    
    317      1     15    150      -8219.    
    318      1     15    152      -232.4    
    319      1     15    154      -1179.    
    320      1     15    156      -6876.    
    321      1     15    157      -180.5    
    322      1     15    159      -3898.    
    323      1     15    161      -5292.    
    324      1     15    163      -4078.    
    325      1     15    164      -4039.    
    326      1     15    166      -5172.    
    327      1     16     48      -283.7    
    328      1     16     50      -283.7    
    329      1     16     52      -283.7    
    330      1     16     54      -3107.    
    331      1     16     55      -283.7    
    332      1     16     57      -5828.    
    333      1     16     59      -283.7    
    334      1     16     61      -5852.    
    335      1     16     62      -5971.    
    336      1     16     64      -283.7    
    337      1     16     66      -5636.    
    338      1     16     68      -7416.    
    339      1     16     69      -330.2    
    340      1     16     71      -330.2    
    341      1     16     73     -0.7441E+05
    342      1     16     75     -0.1662E+05
    343      1     16     76     -0.7503E+05
    344      1     16     78      -7659.    
    345      1     16     80      -6550.    
    346      1     16     82      -5580.    
    347      1     16     83     -0.9013E+05
    348      1     16     85      -9281.    
    349      1     16     87     -0.3139E+05
    350      1     16     89      -296.6    
    351      1     16     91      -296.6    
    352      1     16     92      -296.6    
    353      1     16     94      -9390.    
    354      1     16     96      -5359.    
    355      1     16     98      -5454.    
    356      1     16     99      -296.6    
    357      1     16    101      -534.8    
    358      1     16    103      -6273.    
    359      1     16    105      -534.8    
    360      1     16    106      -534.8    
    361      1     16    108     -0.1152E+06
    362      1     16    110      -534.8    
    363      1     16    112      -534.8    
    364      1     16    113      -534.8    
    365      1     16    115      -534.8    
    366      1     16    117      -534.8    
    367      1     16    119      -228.9    
    368      1     16    120      -6684.    
    369      1     16    122      -228.9    
    370      1     16    124     -0.1128E+05
    371      1     16    126      -228.9    
    372      1     16    127      -4577.    
    373      1     16    129      -228.9    
    374      1     17    131      -3895.    
    375      1     17    133      -4342.    
    376      1     17    135      -2735.    
    377      1     17    136      -8133.    
    378      1     17    138     -0.1059E+05
    379      1     17    140      -8484.    
    380      1     17    142      -232.4    
    381      1     17    143      -9017.    
    382      1     17    145     -0.1059E+05
    383      1     17    147      -6007.    
    384      1     17    149      -5787.    
    385      1     17    150      -2273.    
    386      1     17    152      -232.4    
    387      1     17    154      -180.5    
    388      1     17    156      -4225.    
    389      1     17    157      -180.5    
    390      1     17    159      -3644.    
    391      1     17    161      -180.5    
    392      1     17    163      -5142.    
    393      1     17    164      -8140.    
    394      1     17    166      -3211.    
    395      1     17    168      -180.5    
    396      1     17    170      -6016.    
    397      1     17    172      -2577.    
    398      1     17    173      -233.6    
    399      1     17    175      -233.6    
    400      1     17    177      -233.6    
    401      1     17    187      -3835.    
    402      1     17    189      -3594.    
    403      1     18     48      -283.7    
    404      1     18     50      -6070.    
    405      1     18     52      -9272.    
    406      1     18     54      -8512.    
    407      1     18     55      -283.7    
    408      1     18     57      -283.7    
    409      1     18     59      -283.7    
    410      1     18     61      -283.7    
    411      1     18     62      -8440.    
    412      1     18     64      -283.7    
    413      1     18     66      -330.2    
    414      1     18     68      -7928.    
    415      1     18     69      -7995.    
    416      1     18     71      -330.2    
    417      1     18     73     -0.6950E+05
    418      1     18     75     -0.3210E+05
    419      1     18     76      -330.2    
    420      1     18     78     -0.3938E+05
    421      1     18     80     -0.2445E+05
    422      1     18     82      -330.2    
    423      1     18     83     -0.9167E+05
    424      1     18     85      -296.6    
    425      1     18     87     -0.1017E+06
    426      1     18     89      -296.6    
    427      1     18     90      -3235.    
    428      1     18     92      -4160.    
    429      1     18     94      -296.6    
    430      1     18     96      -7153.    
    431      1     18     98      -296.6    
    432      1     18     99      -296.6    
    433      1     18    101     -0.9705E+05
    434      1     18    103      -7217.    
    435      1     18    105      -6786.    
    436      1     18    106      -2695.    
    437      1     18    108     -0.4636E+05
    438      1     18    110      -534.8    
    439      1     18    112      -534.8    
    440      1     18    113      -6858.    
    441      1     18    115      -5328.    
    442      1     18    117      -7884.    
    443      1     18    119      -228.9    
    444      1     18    120     -0.1008E+05
    445      1     18    122      -228.9    
    446      1     18    124     -0.1016E+05
    447      1     18    126      -228.9    
    448      1     18    127      -4867.    
    449      1     18    129      -228.9    
    450      1     18    131      -228.9    
    451      1     18    133      -4453.    
    452      1     18    135      -7130.    
    453      1     18    136      -3180.    
    454      1     18    138      -9711.    
    455      1     18    140      -9952.    
    456      1     18    142      -9873.    
    457      1     18    143      -5852.    
    458      1     18    145     -0.1205E+06
    459      1     18    147      -6681.    
    460      1     18    149      -8830.    
    461      1     18    150      -4213.    
    462      1     18    152      -4577.    
    463      1     18    154      -2187.    
    464      1     18    156      -180.5    
    465      1     18    157      -3097.    
    466      1     18    159      -7038.    
    467      1     18    161      -4889.    
    468      1     18    163      -5118.    
    469      1     18    164      -180.5    
    470      1     18    166      -4047.    
    471      1     19    168      -1603.    
    472      1     19    170      -2901.    
    473      1     19    172      -6351.    
    474      1     19    173      -233.6    
    475      1     19    175      -371.1    
    476      1     19    177      -443.3    
    477      1     19    179     -0.9895E+05
    478      1     19    180      -6387.    
    479      1     19    182      -2221.    
    480      1     19    184      -3982.    
    481      1     19    186      -3850.    
    482      1     19    187      -233.6    
    483      1     19    189      -7724.    
    484      1     19    191      -5279.    
    485      1     19    193      -5039.    
    486      1     19    194      -3960.    
    487      1     19    196      -1953.    
    488      1     20     27      -191.2    
    489      1     20     29      -191.2    
    490      1     20     31      -230.9    
    491      1     20     46      -230.9    
    492      1     20     48      -283.7    
    493      1     20     50      -283.7    
    494      1     20     52      -283.7    
    495      1     20     54      -283.7    
    496      1     20     55      -5949.    
    497      1     20     57      -7437.    
    498      1     20     59      -283.7    
    499      1     20     61      -6508.    
    500      1     20     62      -6744.    
    501      1     20     64      -283.7    
    502      1     20     66      -7271.    
    503      1     20     68      -6332.    
    504      1     20     69      -8818.    
    505      1     20     71      -330.2    
    506      1     20     73     -0.8600E+05
    507      1     20     75     -0.1038E+05
    508      1     20     76      -330.2    
    509      1     20     78     -0.7272E+05
    510      1     20     80     -0.7751E+05
    511      1     20     82     -0.3298E+05
    512      1     20     83      -296.6    
    513      1     20     85     -0.8975E+05
    514      1     20     87      -296.6    
    515      1     20     89      -7080.    
    516      1     20     90      -5106.    
    517      1     20     92      -8949.    
    518      1     20     94      -6419.    
    519      1     20     96      -6227.    
    520      1     20     98      -296.6    
    521      1     20     99      -6466.    
    522      1     20    101      -534.8    
    523      1     20    103      -9416.    
    524      1     20    105      -534.8    
    525      1     20    106     -0.3622E+05
    526      1     20    108     -0.3839E+05
    527      1     20    110      -534.8    
    528      1     20    112      -7789.    
    529      1     20    113      -534.8    
    530      1     20    115      -534.8    
    531      1     20    117      -6259.    
    532      1     20    119      -228.9    
    533      1     20    120      -228.9    
    534      1     20    122      -228.9    
    535      1     20    124      -8338.    
    536      1     20    126      -228.9    
    537      1     20    127      -7342.    
    538      1     20    129      -228.9    
    539      1     20    131      -3247.    
    540      1     20    133      -228.9    
    541      1     20    135      -4503.    
    542      1     20    136      -2989.    
    543      1     20    138     -0.1161E+05
    544      1     20    140      -5799.    
    545      1     20    142      -6284.    
    546      1     20    143      -5961.    
    547      1     20    145     -0.1288E+06
    548      1     20    147      -6459.    
    549      1     20    149      -4518.    
    550      1     20    150      -7985.    
    551      1     20    152      -6540.    
    552      1     20    154      -180.5    
    553      1     20    156      -4232.    
    554      1     20    157      -180.5    
    555      1     20    159      -5594.    
    556      1     20    161      -180.5    
    557      1     20    163      -9676.    
    558      1     20    164      -4565.    
    559      1     20    166      -180.5    
    560      1     20    168      -2316.    
    561      1     20    170      -2050.    
    562      1     20    172      -2521.    
    563      1     20    173      -233.6    
    564      1     20    175      -233.6    
    565      1     20    177      -854.1    
    566      1     20    179      -1059.    
    567      1     20    180      -5938.    
    568      1     20    182      -2804.    
    569      1     20    184      -5602.    
    570      1     20    186      -4642.    
    571      1     20    187      -6997.    
    572      1     20    189      -4811.    
    573      1     20    191      -4649.    
    574      1     20    193      -4750.    
    575      1     20    194      -4622.    
    576      1     20    196      -5672.    
    577      1     20    198      -236.6    
    578      1     21     15      -139.5    
    579      1     21     16      -139.5    
    580      1     21     18      -139.5    
    581      1     21     20      -139.5    
    582      1     21     22      -139.5    
    583      1     21     24      -139.5    
    584      1     21     25      -139.5    
    585      1     21     27      -139.5    
    586      1     21     29      -139.5    
    587      1     21     31      -175.3    
    588      1     21     32      -175.3    
    589      1     22     43      -175.3    
    590      1     22     45      -175.3    
    591      1     22     46      -175.3    
    592      1     22     48      -211.4    
    593      1     22     50      -211.4    
    594      1     22     52      -211.4    
    595      1     22     53      -211.4    
    596      1     22     55      -211.4    
    597      1     22     57      -211.4    
    598      1     22     59      -6772.    
    599      1     22     61      -211.4    
    600      1     22     62      -6187.    
    601      1     22     64      -7053.    
    602      1     22     66      -6423.    
    603      1     22     68      -9200.    
    604      1     22     69      -7133.    
    605      1     22     71      -4985.    
    606      1     22     73      -259.7    
    607      1     22     75      -259.7    
    608      1     22     76      -259.7    
    609      1     22     78      -259.7    
    610      1     22     80      -6098.    
    611      1     22     82      -259.7    
    612      1     22     83      -4744.    
    613      1     22     85      -3251.    
    614      1     22     87      -227.9    
    615      1     22     89      -7627.    
    616      1     22     90      -227.9    
    617      1     22     92      -5246.    
    618      1     22     94      -5595.    
    619      1     22     96      -9276.    
    620      1     22     98      -4861.    
    621      1     22     99      -5751.    
    622      1     22    101      -5029.    
    623      1     22    103      -6120.    
    624      1     22    105      -7429.    
    625      1     22    106     -0.1009E+05
    626      1     22    108      -7645.    
    627      1     22    110      -8943.    
    628      1     22    112     -0.1078E+05
    629      1     22    113      -226.2    
    630      1     22    115      -5997.    
    631      1     22    117      -7417.    
    632      1     22    119      -6016.    
    633      1     22    120      -2919.    
    634      1     22    122      -3363.    
    635      1     22    124      -4073.    
    636      1     22    126      -3168.    
    637      1     22    127      -5388.    
    638      1     22    129     -0.1018E+05
    639      1     22    131      -6278.    
    640      1     22    133      -4973.    
    641      1     22    135      -5135.    
    642      1     22    136      -5357.    
    643      1     22    138      -3698.    
    644      1     22    140      -6073.    
    645      1     22    142      -5136.    
    646      1     22    143      -5276.    
    647      1     22    145      -6604.    
    648      1     22    147      -9938.    
    649      1     22    149      -9896.    
    650      1     22    150      -5040.    
    651      1     22    152      -9367.    
    652      1     22    154      -3373.    
    653      1     22    156      -4875.    
    654      1     22    157      -6675.    
    655      1     22    159      -4857.    
    656      1     22    161      -8541.    
    657      1     22    163     -0.1248E+05
    658      1     22    164      -6123.    
    659      1     22    166      -224.3    
    660      1     22    168      -1453.    
    661      1     22    170      -2354.    
    662      1     22    171      -216.7    
    663      1     22    173      -2205.    
    664      1     22    175      -2006.    
    665      1     22    177      -216.7    
    666      1     22    179      -216.7    
    667      1     22    180      -5689.    
    668      1     22    182      -7621.    
    669      1     22    184      -5185.    
    670      1     22    186      -3789.    
    671      1     22    187      -4071.    
    672      1     22    189      -2888.    
    673      1     22    191      -3864.    
    674      1     22    193     -0.1031E+05
    675      1     22    194      -3528.    
    676      1     22    196      -2525.    
    677      1     22    198      -202.0    
    678      1     22    200      -202.0    
    679      1     22    201      -202.0    
    680      1     22    203      -202.0    
    681      1     23     13      -139.5    
    682      1     23     15      -139.5    
    683      1     23     16      -139.5    
    684      1     23     18      -139.5    
    685      1     23     20      -139.5    
    686      1     23     22      -139.5    
    687      1     23     24      -139.5    
    688      1     23     25      -139.5    
    689      1     23     27      -139.5    
    690      1     23     29      -139.5    
    691      1     23     31      -175.3    
    692      1     23     32      -175.3    
    693      1     23     34      -175.3    
    694      1     23     36      -175.3    
    695      1     23     38      -175.3    
    696      1     23     39      -175.3    
    697      1     23     41      -175.3    
    698      1     23     43      -175.3    
    699      1     23     45      -175.3    
    700      1     23     46      -175.3    
    701      1     23     48      -211.5    
    702      1     23     50      -211.5    
    703      1     23     52      -211.5    
    704      1     23     53      -6794.    
    705      1     23     55      -211.5    
    706      1     23     57      -211.5    
    707      1     23     59      -211.5    
    708      1     23     61      -211.5    
    709      1     23     62      -6041.    
    710      1     24     64      -7451.    
    711      1     24     66      -259.7    
    712      1     24     68      -7388.    
    713      1     24     69      -8186.    
    714      1     24     71      -6908.    
    715      1     24     73      -259.7    
    716      1     24     75      -7159.    
    717      1     24     76      -259.7    
    718      1     24     78      -259.7    
    719      1     24     80      -5015.    
    720      1     24     82      -259.7    
    721      1     24     83      -6188.    
    722      1     24     85      -4965.    
    723      1     24     87      -7401.    
    724      1     24     89      -5453.    
    725      1     24     90      -5451.    
    726      1     24     92      -227.9    
    727      1     24     94      -227.9    
    728      1     24     96      -5035.    
    729      1     24     98      -4201.    
    730      1     24     99      -7813.    
    731      1     24    101      -226.2    
    732      1     24    103      -5055.    
    733      1     24    105      -226.2    
    734      1     24    106      -6431.    
    735      1     24    108      -7517.    
    736      1     24    110      -9729.    
    737      1     24    112      -9292.    
    738      1     24    113      -9639.    
    739      1     24    115      -5676.    
    740      1     24    117      -7557.    
    741      1     24    119      -9739.    
    742      1     24    120      -4766.    
    743      1     24    122      -339.3    
    744      1     24    124      -5794.    
    745      1     24    126      -6705.    
    746      1     24    127      -339.3    
    747      1     24    129      -7752.    
    748      1     24    131     -0.1235E+05
    749      1     24    133      -6035.    
    750      1     24    135      -4553.    
    751      1     24    136      -4494.    
    752      1     24    138     -0.1085E+06
    753      1     24    140     -0.1073E+06
    754      1     24    142     -0.1072E+06
    755      1     24    143      -7026.    
    756      1     24    145      -3135.    
    757      1     24    147      -5333.    
    758      1     24    149      -7880.    
    759      1     24    150      -5524.    
    760      1     24    152      -4039.    
    761      1     24    154      -6432.    
    762      1     24    156      -3293.    
    763      1     24    157      -2432.    
    764      1     24    159      -2899.    
    765      1     24    161      -3201.    
    766      1     24    163      -3175.    
    767      1     24    164      -2267.    
    768      1     24    166      -1072.    
    769      1     24    168      -1207.    
    770      1     24    170      -2293.    
    771      1     24    171      -216.7    
    772      1     24    173      -2587.    
    773      1     24    175      -4267.    
    774      1     24    177      -216.7    
    775      1     24    179      -1315.    
    776      1     24    180      -1158.    
    777      1     24    182      -2529.    
    778      1     24    184      -2298.    
    779      1     24    186      -2552.    
    780      1     24    187      -5326.    
    781      1     24    189      -8084.    
    782      1     24    191      -9699.    
    783      1     24    193      -5116.    
    784      1     24    194      -202.0    
    785      1     24    196      -4035.    
    786      1     24    198      -7975.    
    787      1     24    200      -4119.    
    788      1     24    201      -202.0    
    789      1     24    203      -1003.    
    790      1     24    205      -237.1    
    791      1     24    207      -1104.    
    792      1     24    208      -1807.    
    793      1     25      9      -48.15    
    794      1     25     11      -48.15    
    795      1     25     13      -139.5    
    796      1     25     15      -139.5    
    797      1     25     16      -139.5    
    798      1     25     18      -139.5    
    799      1     25     20      -139.5    
    800      1     25     22      -139.5    
    801      1     25     24      -139.5    
    802      1     25     25      -139.5    
    803      1     25     27      -139.5    
    804      1     25     29      -139.5    
    805      1     25     31      -175.3    
    806      1     25     32      -175.3    
    807      1     25     34      -175.3    
    808      1     25     36      -175.3    
    809      1     25     38      -175.3    
    810      1     25     39      -175.3    
    811      1     25     41      -175.3    
    812      1     25     43      -175.3    
    813      1     25     45      -175.3    
    814      1     25     46      -175.3    
    815      1     25     48      -211.5    
    816      1     25     50      -211.5    
    817      1     25     52      -211.5    
    818      1     25     53      -211.5    
    819      1     25     55      -211.5    
    820      1     25     57      -211.5    
    821      1     25     59      -211.5    
    822      1     25     61      -211.5    
    823      1     25     62      -211.5    
    824      1     25     64      -3636.    
    825      1     25     66      -7201.    
    826      1     25     68      -8289.    
    827      1     25     69      -259.7    
    828      1     25     71      -7396.    
    829      1     25     73      -5467.    
    830      1     25     75      -5032.    
    831      1     25     76      -6157.    
    832      1     25     78      -259.7    
    833      1     25     80      -6543.    
    834      1     25     82      -259.7    
    835      1     25     83      -2121.    
    836      1     25     85     -0.5321E+05
    837      1     25     87     -0.1026E+06
    838      1     26     89     -0.3347E+05
    839      1     26     90      -228.0    
    840      1     26     92      -228.0    
    841      1     26     94      -6648.    
    842      1     26     96      -8392.    
    843      1     26     98      -228.0    
    844      1     26     99      -5859.    
    845      1     26    101      -4310.    
    846      1     26    103      -5015.    
    847      1     26    105      -6360.    
    848      1     26    106      -4961.    
    849      1     26    108      -4827.    
    850      1     26    110      -226.2    
    851      1     26    112      -9375.    
    852      1     26    113      -226.2    
    853      1     26    115      -226.2    
    854      1     26    117      -8744.    
    855      1     26    119      -7667.    
    856      1     26    120      -4682.    
    857      1     26    122      -8908.    
    858      1     26    124      -6530.    
    859      1     26    126      -6237.    
    860      1     26    127      -8311.    
    861      1     26    129     -0.1002E+05
    862      1     26    131      -6203.    
    863      1     26    133      -4680.    
    864      1     26    134      -7684.    
    865      1     26    136      -2188.    
    866      1     26    138      -3498.    
    867      1     26    140      -4896.    
    868      1     26    142     -0.1017E+06
    869      1     26    143      -8926.    
    870      1     26    145      -7470.    
    871      1     26    147      -5960.    
    872      1     26    149      -3156.    
    873      1     26    150      -2878.    
    874      1     26    152      -4106.    
    875      1     26    154      -2068.    
    876      1     26    156      -1682.    
    877      1     26    157      -1427.    
    878      1     26    159      -2257.    
    879      1     26    161      -2688.    
    880      1     26    163      -1397.    
    881      1     26    164      -224.3    
    882      1     26    166      -224.3    
    883      1     26    168      -224.3    
    884      1     26    170      -655.8    
    885      1     26    171      -1750.    
    886      1     26    173      -2044.    
    887      1     26    175      -3986.    
    888      1     26    177      -216.8    
    889      1     26    179      -4203.    
    890      1     26    180      -2320.    
    891      1     26    182      -216.8    
    892      1     26    184      -216.8    
    893      1     26    186      -4790.    
    894      1     26    187      -5808.    
    895      1     26    189      -8303.    
    896      1     26    191     -0.1221E+06
    897      1     26    193      -8394.    
    898      1     26    194      -3326.    
    899      1     26    196      -1504.    
    900      1     26    198      -202.0    
    901      1     26    200      -2045.    
    902      1     26    201      -937.0    
    903      1     26    203      -2956.    
    904      1     26    205      -5249.    
    905      1     26    207      -4252.    
    906      1     26    208      -2228.    
    907      1     27      8      -48.15    
    908      1     27      9      -48.15    
    909      1     27     11      -48.15    
    910      1     27     13      -139.5    
    911      1     27     15      -139.5    
    912      1     27     16      -139.5    
    913      1     27     18      -139.5    
    914      1     27     20      -120.5    
    915      1     27     22      -53.14    
    916      1     27     24      -13.26    
    917      1     27     25      -13.95    
    918      1     27     27      -13.95    
    919      1     27     29      -13.95    
    920      1     27     31      -175.3    
    921      1     27     32      -175.3    
    922      1     27     34      -175.3    
    923      1     27     36      -175.3    
    924      1     27     38      -175.3    
    925      1     27     39      -175.3    
    926      1     27     41      -175.3    
    927      1     27     43      -175.3    
    928      1     27     45      -175.3    
    929      1     27     46      -175.3    
    930      1     27     48     -0.5603E+05
    931      1     27     50      -8239.    
    932      1     27     52      -211.5    
    933      1     27     53      -211.5    
    934      1     27     55      -211.5    
    935      1     27     57      -211.5    
    936      1     27     59      -8878.    
    937      1     27     60      -211.5    
    938      1     27     62      -211.5    
    939      1     27     64      -6416.    
    940      1     27     66      -259.8    
    941      1     27     68      -6636.    
    942      1     27     69      -8157.    
    943      1     27     71      -9835.    
    944      1     27     73      -6306.    
    945      1     27     75      -7932.    
    946      1     27     76      -8861.    
    947      1     27     78      -4434.    
    948      1     27     80     -0.1002E+05
    949      1     27     82     -0.5161E+05
    950      1     27     83      -228.0    
    951      1     27     85      -228.0    
    952      1     27     87      -5776.    
    953      1     27     89      -228.0    
    954      1     27     90      -228.0    
    955      1     27     92      -6163.    
    956      1     27     94      -5810.    
    957      1     27     96      -7327.    
    958      1     27     97      -6596.    
    959      1     27     99      -7585.    
    960      1     27    101      -4670.    
    961      1     27    103      -7874.    
    962      1     27    105      -226.2    
    963      1     27    106      -2873.    
    964      1     27    108      -226.2    
    965      1     27    110      -5596.    
    966      1     27    112      -4811.    
    967      1     27    113      -5931.    
    968      1     27    115      -7488.    
    969      1     28    117      -9754.    
    970      1     28    119     -0.1078E+05
    971      1     28    120      -339.4    
    972      1     28    122      -8733.    
    973      1     28    124     -0.1076E+05
    974      1     28    126      -9854.    
    975      1     28    127      -4899.    
    976      1     28    129      -4464.    
    977      1     28    131      -5180.    
    978      1     28    133      -6650.    
    979      1     28    134      -8129.    
    980      1     28    136      -7992.    
    981      1     28    138      -2664.    
    982      1     28    140      -363.8    
    983      1     28    142      -3964.    
    984      1     28    143      -7344.    
    985      1     28    145      -6578.    
    986      1     28    147      -6514.    
    987      1     28    149      -2937.    
    988      1     28    150      -5113.    
    989      1     28    152      -5905.    
    990      1     28    154      -4306.    
    991      1     28    156      -5331.    
    992      1     28    157     -0.8745E+05
    993      1     28    159      -224.4    
    994      1     28    161      -6436.    
    995      1     28    163      -8196.    
    996      1     28    164      -4513.    
    997      1     28    166      -3979.    
    998      1     28    168      -2657.    
    999      1     28    170      -224.4    
   1000      1     28    171      -1528.    
   1001      1     28    173      -1869.    
   1002      1     28    175      -216.8    
   1003      1     28    177      -5241.    
   1004      1     28    179      -4796.    
   1005      1     28    180      -3325.    
   1006      1     28    182      -4689.    
   1007      1     28    184      -2680.    
   1008      1     28    186      -5878.    
   1009      1     28    187     -0.1224E+06
   1010      1     28    189      -4728.    
   1011      1     28    191     -0.9900E+05
   1012      1     28    193      -202.0    
   1013      1     28    194      -1257.    
   1014      1     28    196      -1497.    
   1015      1     28    198      -5195.    
   1016      1     28    200      -2930.    
   1017      1     28    201      -719.4    
   1018      1     28    203      -2077.    
   1019      1     28    205      -4203.    
   1020      1     28    207      -7113.    
   1021      1     28    208     -0.9244E+05
   1022      1     28    210      -2346.    
   1023      1     29      2      -48.15    
   1024      1     29      4      -48.15    
   1025      1     29      6      -48.15    
   1026      1     29      8      -48.15    
   1027      1     29      9      -48.15    
   1028      1     29     11      -48.15    
   1029      1     29     13      -121.6    
   1030      1     29     15      -121.6    
   1031      1     29     16      -12.74    
   1032      1     29     18      -120.7    
   1033      1     29     20      -139.5    
   1034      1     29     22      -139.5    
   1035      1     29     23      -139.5    
   1036      1     29     25      -139.5    
   1037      1     29     27      -139.5    
   1038      1     29     29      -139.5    
   1039      1     29     31     -0.7152E+05
   1040      1     29     32      -17.10    
   1041      1     29     34      -17.53    
   1042      1     29     36      -17.53    
   1043      1     29     38      -175.3    
   1044      1     29     39      -175.3    
   1045      1     29     41      -175.3    
   1046      1     29     43      -175.3    
   1047      1     29     45      -175.3    
   1048      1     29     46      -175.3    
   1049      1     29     48     -0.5753E+05
   1050      1     29     50      -211.5    
   1051      1     29     52      -211.5    
   1052      1     29     53      -211.5    
   1053      1     29     55      -211.5    
   1054      1     29     57      -6982.    
   1055      1     29     59      -211.5    
   1056      1     29     60      -211.5    
   1057      1     29     62      -211.5    
   1058      1     29     64      -211.5    
   1059      1     29     66      -259.8    
   1060      1     29     68      -259.8    
   1061      1     29     69      -259.8    
   1062      1     29     71      -259.8    
   1063      1     29     73      -259.8    
   1064      1     29     75      -259.8    
   1065      1     29     76      -4099.    
   1066      1     29     78      -259.8    
   1067      1     29     80      -6326.    
   1068      1     29     82      -3963.    
   1069      1     29     83      -228.0    
   1070      1     29     85      -228.0    
   1071      1     29     87      -228.0    
   1072      1     29     89      -228.0    
   1073      1     29     90      -228.0    
   1074      1     29     92      -228.0    
   1075      1     29     94     -0.7741E+05
   1076      1     29     96     -0.7683E+05
   1077      1     29     97     -0.5815E+05
   1078      1     29     99      -5728.    
   1079      1     29    101     -0.2730E+05
   1080      1     29    103      -9540.    
   1081      1     29    105      -3930.    
   1082      1     29    106      -226.2    
   1083      1     29    108      -1825.    
   1084      1     29    110      -2036.    
   1085      1     29    112      -4137.    
   1086      1     29    113      -5474.    
   1087      1     29    115      -4289.    
   1088      1     29    117      -5152.    
   1089      1     29    119      -6188.    
   1090      1     29    120      -7131.    
   1091      1     29    122      -6484.    
   1092      1     29    124      -6161.    
   1093      1     29    126      -5052.    
   1094      1     29    127      -5524.    
   1095      1     29    129      -4424.    
   1096      1     29    131      -4474.    
   1097      1     29    133      -6094.    
   1098      1     29    134      -9084.    
   1099      1     29    136      -4923.    
   1100      1     29    138      -5858.    
   1101      1     29    140      -4162.    
   1102      1     29    142      -3947.    
   1103      1     29    143      -9012.    
   1104      1     29    145     -0.1072E+05
   1105      1     29    147      -7654.    
   1106      1     29    149      -6150.    
   1107      1     29    150      -8114.    
   1108      1     30    152      -7504.    
   1109      1     30    154      -224.4    
   1110      1     30    156      -8325.    
   1111      1     30    157      -6039.    
   1112      1     30    159      -3052.    
   1113      1     30    161      -4198.    
   1114      1     30    163      -3701.    
   1115      1     30    164      -224.4    
   1116      1     30    166      -2055.    
   1117      1     30    168      -224.4    
   1118      1     30    170      -224.4    
   1119      1     30    171      -216.8    
   1120      1     30    173      -860.5    
   1121      1     30    175      -2850.    
   1122      1     30    177      -7640.    
   1123      1     30    179     -0.1127E+05
   1124      1     30    180      -4422.    
   1125      1     30    182      -3524.    
   1126      1     30    184      -4572.    
   1127      1     30    186      -216.8    
   1128      1     30    187      -216.8    
   1129      1     30    189     -0.1182E+06
   1130      1     30    191     -0.7921E+05
   1131      1     30    193      -202.0    
   1132      1     30    194      -202.0    
   1133      1     30    196      -202.0    
   1134      1     30    198      -3597.    
   1135      1     30    200      -1878.    
   1136      1     30    201      -202.0    
   1137      1     30    203      -8326.    
   1138      1     30    205      -5331.    
   1139      1     30    207      -6811.    
   1140      1     30    208     -0.9256E+05
   1141      1     30    210      -8471.    
   1142      1     30    212      -1781.    
   1143      1     30      2      -48.15    
   1144      1     30      4      -48.15    
   1145      1     30      6      -48.15    
   1146      1     30      8      -48.15    
   1147      1     30      9      -48.15    
   1148      1     31     11      -48.15    
   1149      1     31     13      -139.5    
   1150      1     31     15      -139.5    
   1151      1     31     16      -139.5    
   1152      1     31     18      -139.5    
   1153      1     31     20      -139.5    
   1154      1     31     22      -139.5    
   1155      1     31     23      -139.5    
   1156      1     31     25      -139.5    
   1157      1     31     27      -139.5    
   1158      1     31     29      -139.5    
   1159      1     31     31      -175.3    
   1160      1     31     32      -175.3    
   1161      1     31     34      -175.3    
   1162      1     31     36      -175.3    
   1163      1     31     38      -16.23    
   1164      1     31     39      -17.53    
   1165      1     31     41      -175.3    
   1166      1     31     43      -175.3    
   1167      1     31     45      -175.3    
   1168      1     31     46      -175.3    
   1169      1     31     48      -211.5    
   1170      1     31     50      -211.5    
   1171      1     31     52      -211.5    
   1172      1     31     53      -211.5    
   1173      1     31     55      -211.5    
   1174      1     31     57      -211.5    
   1175      1     31     59      -211.5    
   1176      1     31     60      -211.5    
   1177      1     31     62      -211.5    
   1178      1     31     64      -211.5    
   1179      1     31     66      -259.8    
   1180      1     31     68      -259.8    
   1181      1     31     69      -259.8    
   1182      1     31     71      -259.8    
   1183      1     31     73      -6602.    
   1184      1     31     75      -2088.    
   1185      1     31     76      -5445.    
   1186      1     31     78      -5284.    
   1187      1     31     80      -259.8    
   1188      1     31     82      -5182.    
   1189      1     31     83      -5802.    
   1190      1     31     85      -228.0    
   1191      1     31     87      -3996.    
   1192      1     31     89      -228.0    
   1193      1     31     90      -4246.    
   1194      1     31     92      -228.0    
   1195      1     31     94     -0.6245E+05
   1196      1     31     96      -9685.    
   1197      1     31     97      -9161.    
   1198      1     31     99      -228.0    
   1199      1     31    101      -226.2    
   1200      1     31    103     -0.4916E+05
   1201      1     31    105      -226.2    
   1202      1     31    106      -226.2    
   1203      1     31    108      -226.2    
   1204      1     31    110     -0.4897E+05
   1205      1     31    112      -226.2    
   1206      1     31    113      -3334.    
   1207      1     31    115      -2942.    
   1208      1     31    117      -5183.    
   1209      1     31    119      -3589.    
   1210      1     31    120      -7024.    
   1211      1     31    122      -9924.    
   1212      1     31    124      -5592.    
   1213      1     31    126      -6207.    
   1214      1     31    127      -6999.    
   1215      1     31    129      -5272.    
   1216      1     31    131      -3836.    
   1217      1     31    133      -4964.    
   1218      1     31    134      -4877.    
   1219      1     31    136      -7442.    
   1220      1     31    138      -6026.    
   1221      1     31    140     -0.1052E+05
   1222      1     31    142      -5211.    
   1223      1     31    143      -7290.    
   1224      1     31    145      -7794.    
   1225      1     31    147      -7817.    
   1226      1     31    149      -7976.    
   1227      1     31    150      -9065.    
   1228      1     31    152      -363.9    
   1229      1     31    154      -224.4    
   1230      1     31    156     -0.1058E+06
   1231      1     31    157      -3992.    
   1232      1     31    159      -3903.    
   1233      1     31    161      -2434.    
   1234      1     31    163      -3756.    
   1235      1     31    164      -2568.    
   1236      1     31    166      -2093.    
   1237      1     31    168      -1555.    
   1238      1     31    170      -2466.    
   1239      1     31    171      -3825.    
   1240      1     31    173      -216.8    
   1241      1     31    175      -3385.    
   1242      1     31    177      -5833.    
   1243      1     31    179      -2298.    
   1244      1     31    180      -4752.    
   1245      1     31    182      -216.8    
   1246      1     31    184      -4178.    
   1247      1     31    186      -3863.    
   1248      1     31    187      -4961.    
   1249      1     31    189      -3857.    
   1250      1     31    191     -0.1091E+06
   1251      1     31    193     -0.1023E+06
   1252      1     32    194      -1273.    
   1253      1     32    196      -3857.    
   1254      1     32    198      -7649.    
   1255      1     32    200      -7448.    
   1256      1     32    201      -7830.    
   1257      1     32    203     -0.1081E+05
   1258      1     32    205      -5961.    
   1259      1     32    207      -7619.    
   1260      1     32    208      -7863.    
   1261      1     32    210      -6125.    
   1262      1     32    212      -2812.    
   1263      1     32    214      -1317.    
   1264      1     32    215      -772.1    
   1265      1     32      4      -48.16    
   1266      1     32      6      -48.16    
   1267      1     32      8      -48.16    
   1268      1     32      9      -48.16    
   1269      1     32     11      -48.16    
   1270      1     32     13      -139.5    
   1271      1     32     15      -139.5    
   1272      1     32     16      -139.5    
   1273      1     32     18      -139.5    
   1274      1     32     20      -139.5    
   1275      1     32     22      -139.5    
   1276      1     32     23      -139.5    
   1277      1     32     25      -139.5    
   1278      1     32     27      -139.5    
   1279      1     32     29      -139.5    
   1280      1     33     31      -175.3    
   1281      1     33     32      -175.3    
   1282      1     33     34      -175.3    
   1283      1     33     36      -175.3    
   1284      1     33     38      -175.3    
   1285      1     33     39      -175.3    
   1286      1     33     41      -16.23    
   1287      1     33     43      -16.88    
   1288      1     33     45      -175.3    
   1289      1     33     46      -175.3    
   1290      1     33     48      -211.5    
   1291      1     33     50      -211.5    
   1292      1     33     52      -211.5    
   1293      1     33     53      -211.5    
   1294      1     33     55      -211.5    
   1295      1     33     57      -211.5    
   1296      1     33     59      -211.5    
   1297      1     33     60      -211.5    
   1298      1     33     62      -211.5    
   1299      1     33     64      -211.5    
   1300      1     33     66      -259.8    
   1301      1     33     68      -259.8    
   1302      1     33     69      -259.8    
   1303      1     33     71      -7932.    
   1304      1     33     73      -8076.    
   1305      1     33     75      -6347.    
   1306      1     33     76      -8531.    
   1307      1     33     78      -259.8    
   1308      1     33     80      -4303.    
   1309      1     33     82      -5596.    
   1310      1     33     83      -228.0    
   1311      1     33     85      -6958.    
   1312      1     33     87      -6033.    
   1313      1     33     89     -0.6707E+05
   1314      1     33     90      -228.0    
   1315      1     33     92      -228.0    
   1316      1     33     94      -228.0    
   1317      1     33     96      -228.0    
   1318      1     33     97      -228.0    
   1319      1     33     99      -228.0    
   1320      1     33    101      -4067.    
   1321      1     33    103      -5308.    
   1322      1     33    105     -0.7966E+05
   1323      1     33    106     -0.3543E+05
   1324      1     33    108      -226.2    
   1325      1     33    110      -226.2    
   1326      1     33    112      -226.2    
   1327      1     33    113      -4274.    
   1328      1     33    115      -6027.    
   1329      1     33    117      -6149.    
   1330      1     33    119      -5355.    
   1331      1     33    120      -3742.    
   1332      1     33    122      -3785.    
   1333      1     33    124      -8533.    
   1334      1     33    126      -7329.    
   1335      1     33    127     -0.1103E+05
   1336      1     33    129      -8037.    
   1337      1     33    131      -5608.    
   1338      1     33    133      -7442.    
   1339      1     33    134      -6870.    
   1340      1     33    136      -6522.    
   1341      1     33    138     -0.1049E+05
   1342      1     33    140      -3791.    
   1343      1     33    142      -4886.    
   1344      1     33    143      -9157.    
   1345      1     33    145     -0.1096E+05
   1346      1     33    147      -5885.    
   1347      1     33    149      -7356.    
   1348      1     33    150      -6619.    
   1349      1     33    152      -7019.    
   1350      1     33    154      -5221.    
   1351      1     33    156      -6777.    
   1352      1     33    157      -5784.    
   1353      1     33    159      -6274.    
   1354      1     33    161      -1742.    
   1355      1     33    163      -224.4    
   1356      1     33    164     -0.4562E+05
   1357      1     33    166      -3676.    
   1358      1     33    168      -3761.    
   1359      1     33    170      -3359.    
   1360      1     33    171      -3369.    
   1361      1     33    173      -216.8    
   1362      1     33    175      -3357.    
   1363      1     33    177      -837.0    
   1364      1     33    179      -216.8    
   1365      1     33    180      -1911.    
   1366      1     33    182      -216.8    
   1367      1     33    184      -4636.    
   1368      1     33    186      -4091.    
   1369      1     33    187      -5936.    
   1370      1     33    189      -3320.    
   1371      1     33    191     -0.8042E+05
   1372      1     33    193      -202.0    
   1373      1     33    194      -9360.    
   1374      1     33    196      -4988.    
   1375      1     33    198      -4604.    
   1376      1     33    200      -6305.    
   1377      1     33    201      -5611.    
   1378      1     33    203      -4047.    
   1379      1     33    205      -2866.    
   1380      1     33    207      -6056.    
   1381      1     33    208      -4159.    
   1382      1     33    210      -6489.    
   1383      1     33    212      -195.7    
   1384      1     33    214     -0.7627E+05
   1385      1     33    215      -195.7    
   1386      1     33    217      -2823.    
   1387      1     33    219     -0.4856E+05
   1388      1     34      4      -48.16    
   1389      1     34      6      -48.16    
   1390      1     34      8      -48.16    
   1391      1     34      9      -48.16    
   1392      1     34     11      -48.16    
   1393      1     34     13      -139.5    
   1394      1     34     15      -139.5    
   1395      1     34     16      -139.5    
   1396      1     34     18      -139.5    
   1397      1     34     20      -139.5    
   1398      1     34     22      -139.5    
   1399      1     34     23      -139.5    
   1400      1     34     25      -139.5    
   1401      1     34     27      -139.5    
   1402      1     34     29      -139.5    
   1403      1     34     30      -152.8    
   1404      1     34     32      -152.8    
   1405      1     34     34      -152.8    
   1406      1     34     36      -130.3    
   1407      1     34     38      -129.9    
   1408      1     34     39      -130.1    
   1409      1     34     41      -175.3    
   1410      1     34     43      -175.3    
   1411      1     34     45      -16.02    
   1412      1     34     46      -17.32    
   1413      1     34     48      -21.15    
   1414      1     34     50      -211.5    
   1415      1     34     52      -211.5    
   1416      1     35     53      -211.5    
   1417      1     35     55      -7081.    
   1418      1     35     57      -211.5    
   1419      1     35     59      -211.5    
   1420      1     35     60      -211.5    
   1421      1     35     62      -6061.    
   1422      1     35     64      -211.5    
   1423      1     35     66      -259.8    
   1424      1     35     67      -259.8    
   1425      1     35     69      -259.8    
   1426      1     35     71      -259.8    
   1427      1     35     73      -259.8    
   1428      1     35     75      -259.8    
   1429      1     35     76      -259.8    
   1430      1     35     78      -259.8    
   1431      1     35     80      -259.8    
   1432      1     35     82      -5365.    
   1433      1     35     83      -228.0    
   1434      1     35     85      -228.0    
   1435      1     35     87      -228.0    
   1436      1     35     89      -4830.    
   1437      1     35     90      -228.0    
   1438      1     35     92      -228.0    
   1439      1     35     94      -228.0    
   1440      1     35     96      -228.0    
   1441      1     35     97      -5544.    
   1442      1     35     99      -8619.    
   1443      1     35    101     -0.7651E+05
   1444      1     35    103     -0.7902E+05
   1445      1     35    104     -0.7591E+05
   1446      1     35    106     -0.3302E+05
   1447      1     35    108      -226.2    
   1448      1     35    110      -226.2    
   1449      1     35    112      -226.2    
   1450      1     35    113      -5745.    
   1451      1     35    115      -6378.    
   1452      1     35    117      -226.2    
   1453      1     35    119     -0.3562E+05
   1454      1     35    120      -7210.    
   1455      1     35    122      -7535.    
   1456      1     35    124     -0.1399E+05
   1457      1     35    126      -7004.    
   1458      1     35    127      -6401.    
   1459      1     35    129      -6586.    
   1460      1     35    131      -3896.    
   1461      1     35    133     -0.1181E+05
   1462      1     35    134     -0.1090E+05
   1463      1     35    136      -5628.    
   1464      1     35    138      -4848.    
   1465      1     35    140     -0.1043E+05
   1466      1     35    141      -7262.    
   1467      1     35    143      -4061.    
   1468      1     35    145      -7784.    
   1469      1     35    147      -8921.    
   1470      1     35    149      -8720.    
   1471      1     35    150      -7376.    
   1472      1     35    152      -4962.    
   1473      1     35    154      -2577.    
   1474      1     35    156      -2367.    
   1475      1     35    157      -7136.    
   1476      1     35    159      -5010.    
   1477      1     35    161      -6557.    
   1478      1     35    163      -4377.    
   1479      1     35    164      -4730.    
   1480      1     35    166      -6231.    
   1481      1     35    168      -5835.    
   1482      1     35    170      -3314.    
   1483      1     35    171      -2158.    
   1484      1     35    173      -216.8    
   1485      1     35    175      -946.6    
   1486      1     35    177      -2010.    
   1487      1     35    178      -216.8    
   1488      1     35    180      -2436.    
   1489      1     35    182      -216.8    
   1490      1     35    184      -3621.    
   1491      1     35    186      -5231.    
   1492      1     35    187     -0.9899E+05
   1493      1     35    189     -0.1013E+06
   1494      1     35    191      -202.0    
   1495      1     35    193      -3641.    
   1496      1     35    194      -4886.    
   1497      1     35    196      -202.0    
   1498      1     35    198      -4602.    
   1499      1     35    200      -3219.    
   1500      1     35    201      -5983.    
   1501      1     35    203      -4170.    
   1502      1     35    205      -4631.    
   1503      1     35    207      -4199.    
   1504      1     35    208      -3771.    
   1505      1     35    210      -6754.    
   1506      1     35    212      -3574.    
   1507      1     35    214      -195.7    
   1508      1     35    215     -0.4905E+05
   1509      1     35    217      -2624.    
   1510      1     35    219     -0.6651E+05
   1511      1     36      4      -48.16    
   1512      1     36      6      -48.16    
   1513      1     36      8      -48.16    
   1514      1     36      9      -48.16    
   1515      1     36     11      -48.16    
   1516      1     36     13      -139.5    
   1517      1     36     15      -139.5    
   1518      1     36     16      -139.5    
   1519      1     36     18      -139.5    
   1520      1     36     20      -139.5    
   1521      1     36     22      -139.5    
   1522      1     36     23      -139.5    
   1523      1     36     25      -139.5    
   1524      1     36     27      -139.5    
   1525      1     36     29      -121.5    
   1526      1     36     30      -175.4    
   1527      1     36     32      -175.4    
   1528      1     36     34      -175.4    
   1529      1     36     36      -175.4    
   1530      1     36     38      -175.4    
   1531      1     36     39      -175.4    
   1532      1     36     41      -175.4    
   1533      1     36     43      -175.4    
   1534      1     36     45      -175.4    
   1535      1     36     46      -175.4    
   1536      1     36     48     -0.7137E+05
   1537      1     36     50     -0.6345E+05
   1538      1     36     52     -0.8243E+05
   1539      1     36     53      -18.54    
   1540      1     36     55      -19.59    
   1541      1     36     57      -21.15    
   1542      1     36     59      -21.15    
   1543      1     36     60      -211.5    
   1544      1     36     62      -211.5    
   1545      1     36     64     -0.1090E+05
   1546      1     36     66      -259.8    
   1547      1     36     67      -259.8    
   1548      1     36     69      -259.8    
   1549      1     36     71      -5360.    
   1550      1     36     73      -259.8    
   1551      1     36     75      -259.8    
   1552      1     36     76      -259.8    
   1553      1     37     78      -259.8    
   1554      1     37     80     -0.8397E+05
   1555      1     37     82      -259.8    
   1556      1     37     83      -228.0    
   1557      1     37     85      -6596.    
   1558      1     37     87      -228.0    
   1559      1     37     89      -228.0    
   1560      1     37     90      -228.0    
   1561      1     37     92      -5825.    
   1562      1     37     94      -228.0    
   1563      1     37     96      -4339.    
   1564      1     37     97     -0.5308E+05
   1565      1     37     99      -228.0    
   1566      1     37    101      -226.3    
   1567      1     37    103      -226.3    
   1568      1     37    104      -226.3    
   1569      1     37    106      -226.3    
   1570      1     37    108      -226.3    
   1571      1     37    110      -226.3    
   1572      1     37    112      -5662.    
   1573      1     37    113      -5696.    
   1574      1     37    115      -7719.    
   1575      1     37    117     -0.9069E+05
   1576      1     37    119     -0.1001E+05
   1577      1     37    120      -339.5    
   1578      1     37    122      -339.5    
   1579      1     37    124      -339.5    
   1580      1     37    126      -5898.    
   1581      1     37    127     -0.2242E+05
   1582      1     37    129     -0.5207E+05
   1583      1     37    131     -0.7002E+05
   1584      1     37    133      -7188.    
   1585      1     37    134     -0.1053E+05
   1586      1     37    136     -0.1019E+05
   1587      1     37    138      -6578.    
   1588      1     37    140     -0.1096E+05
   1589      1     37    141     -0.1301E+06
   1590      1     37    143      -5487.    
   1591      1     37    145     -0.1059E+05
   1592      1     37    147      -6596.    
   1593      1     37    149      -7718.    
   1594      1     37    150      -3489.    
   1595      1     37    152      -3680.    
   1596      1     37    154      -3776.    
   1597      1     37    156      -2728.    
   1598      1     37    157      -7645.    
   1599      1     37    159      -6212.    
   1600      1     37    161      -3958.    
   1601      1     37    163      -3948.    
   1602      1     37    164      -224.4    
   1603      1     37    166      -4107.    
   1604      1     37    168      -3992.    
   1605      1     37    170      -2209.    
   1606      1     37    171      -2332.    
   1607      1     37    173      -216.8    
   1608      1     37    175      -216.8    
   1609      1     37    177      -2330.    
   1610      1     37    178      -216.8    
   1611      1     37    180      -216.8    
   1612      1     37    182      -216.8    
   1613      1     37    184      -2954.    
   1614      1     37    186      -216.8    
   1615      1     37    187      -216.8    
   1616      1     37    189      -5367.    
   1617      1     37    191      -4820.    
   1618      1     37    193      -202.1    
   1619      1     37    194      -2003.    
   1620      1     37    196      -2085.    
   1621      1     37    198      -3273.    
   1622      1     37    200      -4502.    
   1623      1     37    201      -4480.    
   1624      1     37    203      -6135.    
   1625      1     37    205      -4498.    
[...]
   9572      1    102    267       341.5    
   9573      1    103    231       341.5    
   9574      1    103    232       341.5    
   9575      1    103    233       341.5    
   9576      1    103    234       341.5    
   9577      1    103    235       341.5    
   9578      1    103    236       341.5    
   9579      1    103    237       341.5    
   9580      1    103    238       341.5    
   9581      1    103    240       341.5    
   9582      1    103    242       341.5    
   9583      1    103    248       341.5    
   9584      1    103    251       341.5    
   9585      1    103    256       341.5    
   9586      1    103    263       341.5    
   9587      1    103    266       341.5    
   9588      1    103    267       341.5    
   9589      1    104    239       341.5    
   9590      1    104    240       341.5    
   9591      1    104    242       341.5    
   9592      1    104    248       341.5    
   9593      1    104    250       341.5    
   9594      1    104    251       341.5    
   9595      1    104    256       341.5    
   9596      1    104    263       341.5    
   9597      1    104    266       341.5    
   9598      1    105    241       341.5    
   9599      1    105    249       341.5    
   9600      1    105    256       341.5    
   9601      1    105    257       341.5    
   9602      1    105    259       341.5    
   9603      1    105    263       341.5    
   9604      1    105    265       341.5    
   9605      1    105    266       341.5    
   9606      1    105    268       341.5    
   9607      1    106    240       341.5    
   9608      1    106    245       341.5    
   9609      1    106    249       341.5    
   9610      1    106    256       341.5    
   9611      1    106    259       341.5    
   9612      1    106    263       341.5    
   9613      1    106    265       341.5    
   9614      1    106    266       341.5    
   9615      1    106    267       341.5    
   9616      1    107    240       341.5    
   9617      1    107    245       341.5    
   9618      1    107    249       341.5    
   9619      1    107    256       341.5    
   9620      1    107    259       341.5    
   9621      1    107    261       341.5    
   9622      1    107    262       341.5    
   9623      1    107    263       341.5    
   9624      1    107    264       341.5    
   9625      1    108    240       341.5    
   9626      1    108    245       341.5    
   9627      1    108    248       341.5    
   9628      1    108    255       341.5    
   9629      1    108    256       341.5    
   9630      1    108    258       341.5    
   9631      1    108    259       341.5    
   9632      1    108    260       341.5    
   9633      1    108    261       341.5    
   9634      1    109    241       341.5    
   9635      1    109    242       341.5    
   9636      1    109    243       341.5    
   9637      1    109    245       341.5    
   9638      1    109    247       341.5    
   9639      1    109    250       341.5    
   9640      1    109    252       341.5    
   9641      1    109    255       341.5    
   9642      1    109    258       341.5    
   9643      1    109    259       341.5    
   9644      1    109    260       341.5    
   9645      1    109    294       341.5    
   9646      1    109    339       341.5    
   9647      1    110    244       341.5    
   9648      1    110    245       341.5    
   9649      1    110    246       341.5    
   9650      1    110    249       341.5    
   9651      1    110    252       341.5    
   9652      1    110    255       341.5    
   9653      1    110    257       341.5    
   9654      1    110    295       341.5    
   9655      1    110    332       341.5    
   9656      1    110    333       341.5    
   9657      1    110    338       341.5    
   9658      1    111    246       341.5    
   9659      1    111    249       341.5    
   9660      1    111    252       341.5    
   9661      1    111    254       341.5    
   9662      1    111    256       341.5    
   9663      1    111    271       341.5    
   9664      1    111    285       341.5    
   9665      1    111    286       341.5    
   9666      1    111    295       341.5    
   9667      1    111    332       341.5    
   9668      1    111    338       341.5    
   9669      1    112    247       341.5    
   9670      1    112    249       341.5    
   9671      1    112    251       341.5    
   9672      1    112    252       341.5    
   9673      1    112    253       341.5    
   9674      1    112    254       341.5    
   9675      1    112    255       341.5    
   9676      1    112    271       341.5    
   9677      1    112    284       341.5    
   9678      1    112    285       341.5    
   9679      1    112    295       341.5    
   9680      1    112    333       341.5    
   9681      1    113    248       341.5    
   9682      1    113    249       341.5    
   9683      1    113    250       341.5    
   9684      1    113    255       341.5    
   9685      1    113    270       341.5    
   9686      1    113    277       341.5    
   9687      1    113    278       341.5    
   9688      1    113    283       341.5    
   9689      1    113    295       341.5    
   9690      1    113    298       341.5    
   9691      1    113    299       341.5    
   9692      1    113    322       341.5    
   9693      1    113    332       341.5    
   9694      1    114    254       341.5    
   9695      1    114    262       341.5    
   9696      1    114    263       341.5    
   9697      1    114    269       341.5    
   9698      1    114    270       341.5    
   9699      1    114    276       341.5    
   9700      1    114    283       341.5    
   9701      1    114    291       341.5    
   9702      1    114    296       341.5    
   9703      1    114    297       341.5    
   9704      1    114    298       341.5    
   9705      1    114    323       341.5    
   9706      1    114    333       341.5    
   9707      1    115    254       341.5    
   9708      1    115    261       341.5    
   9709      1    115    270       341.5    
   9710      1    115    275       341.5    
   9711      1    115    276       341.5    
   9712      1    115    283       341.5    
   9713      1    115    291       341.5    
   9714      1    115    297       341.5    
   9715      1    115    298       341.5    
   9716      1    115    304       341.5    
   9717      1    115    306       341.5    
   9718      1    115    323       341.5    
   9719      1    115    324       341.5    
   9720      1    115    333       341.5    
   9721      1    116    254       341.5    
   9722      1    116    255       341.5    
   9723      1    116    260       341.5    
   9724      1    116    261       341.5    
   9725      1    116    270       341.5    
   9726      1    116    271       341.5    
   9727      1    116    272       341.5    
   9728      1    116    273       341.5    
   9729      1    116    274       341.5    
   9730      1    116    283       341.5    
   9731      1    116    291       341.5    
   9732      1    116    298       341.5    
   9733      1    116    299       341.5    
   9734      1    116    304       341.5    
   9735      1    116    306       341.5    
   9736      1    116    325       341.5    
   9737      1    116    326       341.5    
   9738      1    117    255       341.5    
   9739      1    117    256       341.5    
   9740      1    117    257       341.5    
   9741      1    117    258       341.5    
   9742      1    117    259       341.5    
   9743      1    117    267       341.5    
   9744      1    117    268       341.5    
   9745      1    117    269       341.5    
   9746      1    117    282       341.5    
   9747      1    117    291       341.5    
   9748      1    117    299       341.5    
   9749      1    117    305       341.5    
   9750      1    117    306       341.5    
   9751      1    117    312       341.5    
   9752      1    117    313       341.5    
   9753      1    117    327       341.5    
   9754      1    118    256       341.5    
   9755      1    118    258       341.5    
   9756      1    118    267       341.5    
   9757      1    118    281       341.5    
   9758      1    118    282       341.5    
   9759      1    118    291       341.5    
   9760      1    118    298       341.5    
   9761      1    118    305       341.5    
   9762      1    118    312       341.5    
   9763      1    118    323       341.5    
   9764      1    118    327       341.5    
   9765      1    119    256       341.5    
   9766      1    119    257       341.5    
   9767      1    119    267       341.5    
   9768      1    119    281       341.5    
   9769      1    119    291       341.5    
   9770      1    119    298       341.5    
   9771      1    119    305       341.5    
   9772      1    119    312       341.5    
   9773      1    119    324       341.5    
   9774      1    119    327       341.5    
   9775      1    120    257       341.5    
   9776      1    120    260       341.5    
   9777      1    120    261       341.5    
   9778      1    120    262       341.5    
   9779      1    120    266       341.5    
   9780      1    120    267       341.5    
   9781      1    120    280       341.5    
   9782      1    120    291       341.5    
   9783      1    120    298       341.5    
   9784      1    120    300       341.5    
   9785      1    120    306       341.5    
   9786      1    120    312       341.5    
   9787      1    120    325       341.5    
   9788      1    120    326       341.5    
   9789      1    120    327       341.5    
   9790      1    121    257       341.5    
   9791      1    121    258       341.5    
   9792      1    121    259       341.5    
   9793      1    121    263       341.5    
   9794      1    121    264       341.5    
   9795      1    121    266       341.5    
   9796      1    121    270       341.5    
   9797      1    121    280       341.5    
   9798      1    121    291       341.5    
   9799      1    121    298       341.5    
   9800      1    121    299       341.5    
   9801      1    121    300       341.5    
   9802      1    121    305       341.5    
   9803      1    121    311       341.5    
   9804      1    121    312       341.5    
   9805      1    121    326       341.5    
   9806      1    121    327       341.5    
   9807      1    122    263       341.5    
   9808      1    122    265       341.5    
   9809      1    122    271       341.5    
   9810      1    122    272       341.5    
   9811      1    122    278       341.5    
   9812      1    122    279       341.5    
   9813      1    122    291       341.5    
   9814      1    122    298       341.5    
   9815      1    122    305       341.5    
   9816      1    122    311       341.5    
   9817      1    123    263       341.5    
   9818      1    123    273       341.5    
   9819      1    123    278       341.5    
   9820      1    123    291       341.5    
   9821      1    123    295       341.5    
   9822      1    123    299       341.5    
   9823      1    123    305       341.5    
   9824      1    123    310       341.5    
   9825      1    123    326       341.5    
   9826      1    124    264       341.5    
   9827      1    124    272       341.5    
   9828      1    124    274       341.5    
   9829      1    124    278       341.5    
   9830      1    124    291       341.5    
   9831      1    124    295       341.5    
   9832      1    124    300       341.5    
   9833      1    124    304       341.5    
   9834      1    124    310       341.5    
   9835      1    124    326       341.5    
   9836      1    125    265       341.5    
   9837      1    125    267       341.5    
   9838      1    125    268       341.5    
   9839      1    125    271       341.5    
   9840      1    125    274       341.5    
   9841      1    125    277       341.5    
   9842      1    125    291       341.5    
   9843      1    125    295       341.5    
   9844      1    125    300       341.5    
   9845      1    125    301       341.5    
   9846      1    125    302       341.5    
   9847      1    125    303       341.5    
   9848      1    125    304       341.5    
   9849      1    125    310       341.5    
   9850      1    125    325       341.5    
   9851      1    126    266       341.5    
   9852      1    126    267       341.5    
   9853      1    126    271       341.5    
   9854      1    126    274       341.5    
   9855      1    126    277       341.5    
   9856      1    126    291       341.5    
   9857      1    126    295       341.5    
   9858      1    126    300       341.5    
   9859      1    126    310       341.5    
   9860      1    126    312       341.5    
   9861      1    127    267       341.5    
   9862      1    127    271       341.5    
   9863      1    127    273       341.5    
   9864      1    127    277       341.5    
   9865      1    127    286       341.5    
   9866      1    127    290       341.5    
   9867      1    127    294       341.5    
   9868      1    127    299       341.5    
   9869      1    127    310       341.5    
   9870      1    127    311       341.5    
   9871      1    127    324       341.5    
   9872      1    128    267       341.5    
   9873      1    128    270       341.5    
   9874      1    128    271       341.5    
   9875      1    128    273       341.5    
   9876      1    128    276       341.5    
   9877      1    128    286       341.5    
   9878      1    128    287       341.5    
   9879      1    128    288       341.5    
   9880      1    128    290       341.5    
   9881      1    128    294       341.5    
   9882      1    128    299       341.5    
   9883      1    128    303       341.5    
   9884      1    128    309       341.5    
   9885      1    128    310       341.5    
   9886      1    128    311       341.5    
   9887      1    128    323       341.5    
   9888      1    129    268       341.5    
   9889      1    129    269       341.5    
   9890      1    129    271       341.5    
   9891      1    129    272       341.5    
   9892      1    129    273       341.5    
   9893      1    129    276       341.5    
   9894      1    129    277       341.5    
   9895      1    129    289       341.5    
   9896      1    129    290       341.5    
   9897      1    129    293       341.5    
   9898      1    129    299       341.5    
   9899      1    129    300       341.5    
   9900      1    129    301       341.5    
   9901      1    129    302       341.5    
   9902      1    129    305       341.5    
   9903      1    129    307       341.5    
   9904      1    129    308       341.5    
   9905      1    129    311       341.5    
   9906      1    130    273       341.5    
   9907      1    130    274       341.5    
   9908      1    130    276       341.5    
   9909      1    130    277       341.5    
   9910      1    130    288       341.5    
   9911      1    130    289       341.5    
   9912      1    130    290       341.5    
   9913      1    130    291       341.5    
   9914      1    130    292       341.5    
   9915      1    130    299       341.5    
   9916      1    130    303       341.5    
   9917      1    130    304       341.5    
   9918      1    130    305       341.5    
   9919      1    130    306       341.5    
   9920      1    130    310       341.5    
   9921      1    131    274       341.5    
   9922      1    131    277       341.5    
   9923      1    131    287       341.5    
   9924      1    131    289       341.5    
   9925      1    131    292       341.5    
   9926      1    131    293       341.5    
   9927      1    131    294       341.5    
   9928      1    131    299       341.5    
   9929      1    131    303       341.5    
   9930      1    131    310       341.5    
   9931      1    132    274       341.5    
   9932      1    132    276       341.5    
   9933      1    132    283       341.5    
   9934      1    132    288       341.5    
   9935      1    132    295       341.5    
   9936      1    132    296       341.5    
   9937      1    132    297       341.5    
   9938      1    132    299       341.5    
   9939      1    132    301       341.5    
   9940      1    132    302       341.5    
   9941      1    132    310       341.5    
   9942      1    133    275       341.5    
   9943      1    133    276       341.5    
   9944      1    133    283       341.5    
   9945      1    133    288       341.5    
   9946      1    133    297       341.5    
   9947      1    133    298       341.5    
   9948      1    133    300       341.5    
   9949      1    133    301       341.5    
   9950      1    133    304       341.5    
   9951      1    133    310       341.5    
   9952      1    133    317       341.5    
   9953      1    134    275       341.5    
   9954      1    134    276       341.5    
   9955      1    134    284       341.5    
   9956      1    134    289       341.5    
   9957      1    134    299       341.5    
   9958      1    134    300       341.5    
   9959      1    134    304       341.5    
   9960      1    134    310       341.5    
   9961      1    134    315       341.5    
   9962      1    134    316       341.5    
   9963      1    135    277       341.5    
   9964      1    135    278       341.5    
   9965      1    135    284       341.5    
   9966      1    135    288       341.5    
   9967      1    135    301       341.5    
   9968      1    135    302       341.5    
   9969      1    135    303       341.5    
   9970      1    135    305       341.5    
   9971      1    135    310       341.5    
   9972      1    135    313       341.5    
   9973      1    135    314       341.5    
   9974      1    136    279       341.5    
   9975      1    136    282       341.5    
   9976      1    136    285       341.5    
   9977      1    136    286       341.5    
   9978      1    136    287       341.5    
   9979      1    136    301       341.5    
   9980      1    136    304       341.5    
   9981      1    136    308       341.5    
   9982      1    136    309       341.5    
   9983      1    136    310       341.5    
   9984      1    136    312       341.5    
   9985      1    137    280       341.5    
   9986      1    137    282       341.5    
   9987      1    137    285       341.5    
   9988      1    137    302       341.5    
   9989      1    137    303       341.5    
   9990      1    137    306       341.5    
   9991      1    137    307       341.5    
   9992      1    137    309       341.5    
   9993      1    137    311       341.5    
   9994      1    138    281       341.5    
   9995      1    138    282       341.5    
   9996      1    138    284       341.5    
   9997      1    138    302       341.5    
   9998      1    138    307       341.5    
   9999      1    139    282       341.5    
  10000      1    139    283       341.5    
  10001      1    139    284       341.5    
  10002      1    139    302       341.5    
  10003      1    139    303       341.5    
  10004      1    139    305       341.5    
  10005      1    139    306       341.5    
  10006      1    140    302       341.5    
  10007      1    140    303       341.5    
  10008      1    140    304       341.5    
  10009      1    140    305       341.5    
  10010      1    140    306       341.5    
  10011      1    140    307       341.5    
  10012      1    141    302       341.5    

  10012 WELLS

  54036 DRAINS



                           RECHARGE
 READING ON UNIT   19 WITH FORMAT: (342E15.6)          
 
 SOLVING FOR HEAD 
