                                  MODFLOW-NWT-SWR1 
      U.S. GEOLOGICAL SURVEY MODULAR FINITE-DIFFERENCE GROUNDWATER-FLOW MODEL
                             VERSION 1.1.4 4/01/2018
                    BASED ON MODFLOW-2005 VERSION 1.12.00 02/03/2017

 LIST FILE: C:/GitHub/FUSE/Modflow/output/Bhima_transient.list
                         UNIT    2

 OPENING C:/GitHub/FUSE/Modflow/output/Bhima_transient.dis
 FILE TYPE:DIS   UNIT   11   STATUS:OLD    
 FORMAT:FORMATTED              ACCESS:SEQUENTIAL          

 OPENING C:/GitHub/FUSE/Modflow/output/Bhima_transient.bas
 FILE TYPE:BAS6   UNIT   13   STATUS:OLD    
 FORMAT:FORMATTED              ACCESS:SEQUENTIAL          

 OPENING C:/GitHub/FUSE/Modflow/output/Bhima_transient.upw
 FILE TYPE:UPW   UNIT   31   STATUS:OLD    
 FORMAT:FORMATTED              ACCESS:SEQUENTIAL          

 OPENING C:/GitHub/FUSE/Modflow/output/Bhima_transient.nwt
 FILE TYPE:NWT   UNIT   32   STATUS:OLD    
 FORMAT:FORMATTED              ACCESS:SEQUENTIAL          

 OPENING C:/GitHub/FUSE/Modflow/output/Bhima_transient.drn
 FILE TYPE:DRN   UNIT   21   STATUS:OLD    
 FORMAT:FORMATTED              ACCESS:SEQUENTIAL          

 OPENING C:/GitHub/FUSE/Modflow/output/Bhima_transient.wel
 FILE TYPE:WEL   UNIT   20   STATUS:OLD    
 FORMAT:FORMATTED              ACCESS:SEQUENTIAL          

 OPENING C:/GitHub/FUSE/Modflow/output/Bhima_transient.rch
 FILE TYPE:RCH   UNIT   19   STATUS:OLD    
 FORMAT:FORMATTED              ACCESS:SEQUENTIAL          

 OPENING C:/GitHub/FUSE/Modflow/output/Bhima_transient.oc
 FILE TYPE:OC   UNIT   14   STATUS:OLD    
 FORMAT:FORMATTED              ACCESS:SEQUENTIAL          

 OPENING C:/GitHub/FUSE/Modflow/output/Bhima_transient.hds
 FILE TYPE:DATA(BINARY)   UNIT   51   STATUS:REPLACE
 FORMAT:BINARY                 ACCESS:SEQUENTIAL          

 OPENING C:/GitHub/FUSE/Modflow/output/Bhima_transient.out
 FILE TYPE:DATA   UNIT   50   STATUS:UNKNOWN
 FORMAT:FORMATTED              ACCESS:SEQUENTIAL          

 BAS -- BASIC PACKAGE, VERSION 1.1.4, 4/01/2018 INPUT READ FROM UNIT   13
 
 MODFLOW was compiled using mixed precision
 Precision of REAL variables:           6
 Precision of DOUBLE PRECISION variables:          15

 DISCRETIZATION INPUT DATA READ FROM UNIT   11
 # DIS package for  MODFLOW-NWT, generated by Flopy.
    1 LAYERS       158 ROWS       342 COLUMNS
    1 STRESS PERIOD(S) IN SIMULATION
 MODEL TIME UNIT IS DAYS
 MODEL LENGTH UNIT IS METERS
  Confining bed flag for each layer:
   0

                     DELR =   500.000    

                     DELC =   500.000    



           TOP ELEVATION OF LAYER 1
 READING ON UNIT   11 WITH FORMAT: (342E15.6)          



             MODEL LAYER BOTTOM EL. FOR LAYER   1
 READING ON UNIT   11 WITH FORMAT: (342E15.6)          


 STRESS PERIOD     LENGTH       TIME STEPS     MULTIPLIER FOR DELT    SS FLAG
 ----------------------------------------------------------------------------
        1         1.000000          1                    1.000         TR

 TRANSIENT SIMULATION



 
 # BAS6 package for  MODFLOW-NWT, generated by Flopy.                            
 THE FREE FORMAT OPTION HAS BEEN SELECTED



                     BOUNDARY ARRAY FOR LAYER   1
 READING ON UNIT   13 WITH FORMAT: (342I10)            

 AQUIFER HEAD WILL BE SET TO  -999.99     AT ALL NO-FLOW NODES (IBOUND=0).



                       INITIAL HEAD FOR LAYER   1
 READING ON UNIT   13 WITH FORMAT: (342E15.6)          
 # OC package for  MODFLOW-NWT, generated by Flopy.

 OUTPUT CONTROL IS SPECIFIED ONLY AT TIME STEPS FOR WHICH OUTPUT IS DESIRED
 COMPACT CELL-BY-CELL BUDGET FILES WILL BE WRITTEN
 AUXILIARY DATA WILL BE SAVED IN CELL-BY-CELL BUDGET FILES
 HEAD PRINT FORMAT CODE IS   0    DRAWDOWN PRINT FORMAT CODE IS   0
 HEADS WILL BE SAVED ON UNIT   51    DRAWDOWNS WILL BE SAVED ON UNIT    0
 # NWT package for  MODFLOW-NWT, generated by Flopy.

 NWT1 -- Newton Solver, VERSION 1.1.4, 4/01/2018
         INPUT READ FROM UNIT 32

 COMPLEX OPTION:
 DEFAULT SOLVER INPUT VALUES REFLECT STRONGLY NONLINEAR MODEL
 ***GMRES linear solver will be used***
 
   CONVERGENCE CRITERION OF   0.100000E-01 FOR HEAD SOLUTION
   AND A TOLERANCE OF   0.500000E+04 FOR FLOW SOLUTION AND 
   A MAXIMUM OF   100 OUTER ITERATIONS. 


   D-B-D REDUCTION FACTOR OF    0.850000E+00 AND 
   A D-B-D INCREASE FACTOR OF    0.100000E-04 AND 
   A D-B-D RELAXATION OF    0.000000E+00 AND 
   A MOMENTUM FACTOR OF    0.100000E+00 .


   BACKTRACKING IS ACTIVE 
   THE MAXIMUM NUMBER OF BACKTRACKS IS    50 AND 
   THE BACKTRACKING TOLERANCE IS    0.110000E+01 AND
   THE BACKTRACKING REDUCTION FACTOR IS    0.700000E+00

 GMRES -- LINEAR SOLUTION BY GMRES PACKAGE 
     adapted for HYDROTHERM by Kipp and others (2008)
     using software originally developed by Saad (1990) 32
     using algorithms described in Saad (2003)

 UPW1 -- UPSTREAM WEIGHTING FLOW PACKAGE, VERSION 1.1.4, 4/01/2018
         INPUT READ FROM UNIT 31

 # UPW package for  MODFLOW-NWT, generated by Flopy.
 No named parameters

   LAYER FLAGS:
 LAYER       LAYTYP          LAYAVG    CHANI           LAYVKA           LAYWET
 ---------------------------------------------------------------------------
    1             1             0     1.000E+00             1             0

   INTERPRETATION OF LAYER FLAGS:
                        INTERBLOCK     HORIZONTAL    DATA IN
         LAYER TYPE   TRANSMISSIVITY   ANISOTROPY   ARRAY VKA   WETTABILITY
 LAYER   (LAYTYP)        (LAYAVG)      (CHANI)     (LAYVKA)       (LAYWET)
 ---------------------------------------------------------------------------
    1   CONVERTIBLE      HARMONIC     1.000E+00    ANISOTROPY  NON-WETTABLE



              HYD. COND. ALONG ROWS FOR LAYER   1
 READING ON UNIT   31 WITH FORMAT: (342E15.6)          

  HORIZ. TO VERTICAL ANI. =   5.00000     FOR LAYER   1



                   SPECIFIC STORAGE FOR LAYER   1
 READING ON UNIT   31 WITH FORMAT: (342E15.6)          



                     SPECIFIC YIELD FOR LAYER   1
 READING ON UNIT   31 WITH FORMAT: (342E15.6)          

 WEL -- WELL PACKAGE FOR NWT VERSION 1.1.4,  4/01/2018 INPUT READ FROM UNIT   20
 # WEL package for  MODFLOW-NWT, generated by Flopy.
 No named parameters
 MAXIMUM OF   1591 ACTIVE WELLS AT ONE TIME
 No named parameters
 
 NEGATIVE PUMPING RATES WILL BE REDUCED IF HEAD 
 FALLS WITHIN THE INTERVAL PHIRAMP TIMES THE CELL 
 THICKNESS. THE VALUE SPECIFIED FOR PHIRAMP IS  0.10000E+00
 WELLS WITH REDUCED PUMPING WILL BE REPORTED TO FILE UNIT NUMBER   50


     0 Well parameters

 DRN -- DRAIN PACKAGE, VERSION 7, 5/2/2005 INPUT READ FROM UNIT   21
 # DRN package for  MODFLOW-NWT, generated by Flopy.
 No named parameters
 MAXIMUM OF  54036 ACTIVE DRAINS AT ONE TIME
 LISTS OF DRAIN CELLS WILL NOT BE PRINTED


     0 Drain parameters

 RCH -- RECHARGE PACKAGE, VERSION 7, 5/2/2005 INPUT READ FROM UNIT   19
 # RCH package for  MODFLOW-NWT, generated by Flopy.
 No named parameters
 OPTION 3 -- RECHARGE TO HIGHEST ACTIVE NODE IN EACH VERTICAL COLUMN


     0 Recharge parameters
1
                            STRESS PERIOD NO.    1, LENGTH =   1.000000    
                            -----------------------------------------------

                              NUMBER OF TIME STEPS =     1

                               MULTIPLIER FOR DELT =     1.000

                            INITIAL TIME STEP SIZE =   1.000000    

 WELL NO.  LAYER   ROW   COL   STRESS RATE         
 --------------------------------------------------
      1      1     57    218       4162.    
      2      1     57    219       4162.    
      3      1     58    217       4162.    
      4      1     58    218       4162.    
      5      1     58    220       4162.    
      6      1     58    221       4162.    
      7      1     58    222       4162.    
      8      1     59    216       4162.    
      9      1     59    222       4162.    
     10      1     60    215       4162.    
     11      1     60    221       4162.    
     12      1     60    226       4162.    
     13      1     61    216       4162.    
     14      1     61    222       4162.    
     15      1     61    224       4162.    
     16      1     61    225       4162.    
     17      1     61    227       4162.    
     18      1     62    216       4162.    
     19      1     62    222       4162.    
     20      1     62    223       4162.    
     21      1     62    226       4162.    
     22      1     62    235       4162.    
     23      1     62    236       4162.    
     24      1     63    198       4162.    
     25      1     63    199       4162.    
     26      1     63    200       4162.    
     27      1     63    202       4162.    
     28      1     63    205       4162.    
     29      1     63    206       4162.    
     30      1     63    207       4162.    
     31      1     63    208       4162.    
     32      1     63    209       4162.    
     33      1     63    216       4162.    
     34      1     63    226       4162.    
     35      1     63    235       4162.    
     36      1     63    236       4162.    
     37      1     63    237       4162.    
     38      1     63    238       4162.    
     39      1     63    239       4162.    
     40      1     64    175       4162.    
     41      1     64    176       4162.    
     42      1     64    177       4162.    
     43      1     64    198       4162.    
     44      1     64    201       4162.    
     45      1     64    202       4162.    
     46      1     64    204       4162.    
     47      1     64    208       4162.    
     48      1     64    210       4162.    
     49      1     64    215       4162.    
     50      1     64    216       4162.    
     51      1     64    227       4162.    
     52      1     64    234       4162.    
     53      1     64    235       4162.    
     54      1     64    236       4162.    
     55      1     64    237       4162.    
     56      1     64    238       4162.    
     57      1     64    239       4162.    
     58      1     65    124       4162.    
     59      1     65    125       4162.    
     60      1     65    126       4162.    
     61      1     65    168       4162.    
     62      1     65    169       4162.    
     63      1     65    170       4162.    
     64      1     65    175       4162.    
     65      1     65    177       4162.    
     66      1     65    178       4162.    
     67      1     65    179       4162.    
     68      1     65    198       4162.    
     69      1     65    201       4162.    
     70      1     65    203       4162.    
     71      1     65    204       4162.    
     72      1     65    205       4162.    
     73      1     65    210       4162.    
     74      1     65    211       4162.    
     75      1     65    212       4162.    
     76      1     65    214       4162.    
     77      1     65    226       4162.    
     78      1     65    227       4162.    
     79      1     65    228       4162.    
     80      1     65    229       4162.    
     81      1     65    231       4162.    
     82      1     65    232       4162.    
     83      1     65    233       4162.    
     84      1     65    234       4162.    
     85      1     65    235       4162.    
     86      1     65    237       4162.    
     87      1     65    239       4162.    
     88      1     66    123       4162.    
     89      1     66    127       4162.    
     90      1     66    163       4162.    
     91      1     66    164       4162.    
     92      1     66    167       4162.    
     93      1     66    171       4162.    
     94      1     66    174       4162.    
     95      1     66    178       4162.    
     96      1     66    180       4162.    
     97      1     66    181       4162.    
     98      1     66    182       4162.    
     99      1     66    183       4162.    
    100      1     66    184       4162.    
    101      1     66    185       4162.    
    102      1     66    197       4162.    
    103      1     66    198       4162.    
    104      1     66    199       4162.    
    105      1     66    201       4162.    
    106      1     66    204       4162.    
    107      1     66    205       4162.    
    108      1     66    210       4162.    
    109      1     66    213       4162.    
    110      1     66    214       4162.    
    111      1     66    226       4162.    
    112      1     66    229       4162.    
    113      1     66    230       4162.    
    114      1     66    233       4162.    
    115      1     66    234       4162.    
    116      1     66    235       4162.    
    117      1     66    236       4162.    
    118      1     66    237       4162.    
    119      1     66    239       4162.    
    120      1     66    240       4162.    
    121      1     66    241       4162.    
    122      1     66    242       4162.    
    123      1     66    246       4162.    
    124      1     66    247       4162.    
    125      1     67    121       4162.    
    126      1     67    122       4162.    
    127      1     67    123       4162.    
    128      1     67    124       4162.    
    129      1     67    125       4162.    
    130      1     67    126       4162.    
    131      1     67    127       4162.    
    132      1     67    128       4162.    
    133      1     67    129       4162.    
    134      1     67    130       4162.    
    135      1     67    131       4162.    
    136      1     67    132       4162.    
    137      1     67    145       4162.    
    138      1     67    147       4162.    
    139      1     67    151       4162.    
    140      1     67    152       4162.    
    141      1     67    153       4162.    
    142      1     67    162       4162.    
    143      1     67    165       4162.    
    144      1     67    166       4162.    
    145      1     67    167       4162.    
    146      1     67    172       4162.    
    147      1     67    173       4162.    
    148      1     67    179       4162.    
    149      1     67    180       4162.    
    150      1     67    181       4162.    
    151      1     67    185       4162.    
    152      1     67    186       4162.    
    153      1     67    187       4162.    
    154      1     67    188       4162.    
    155      1     67    189       4162.    
    156      1     67    190       4162.    
    157      1     67    197       4162.    
    158      1     67    199       4162.    
    159      1     67    201       4162.    
    160      1     67    204       4162.    
    161      1     67    205       4162.    
    162      1     67    206       4162.    
    163      1     67    207       4162.    
    164      1     67    208       4162.    
    165      1     67    210       4162.    
    166      1     67    214       4162.    
    167      1     67    225       4162.    
    168      1     67    229       4162.    
    169      1     67    234       4162.    
    170      1     67    235       4162.    
    171      1     67    237       4162.    
    172      1     67    238       4162.    
    173      1     67    242       4162.    
    174      1     67    243       4162.    
    175      1     67    246       4162.    
    176      1     67    247       4162.    
    177      1     67    248       4162.    
    178      1     67    249       4162.    
    179      1     67    250       4162.    
    180      1     68    120       4162.    
    181      1     68    121       4162.    
    182      1     68    122       4162.    
    183      1     68    127       4162.    
    184      1     68    133       4162.    
    185      1     68    137       4162.    
    186      1     68    139       4162.    
    187      1     68    140       4162.    
    188      1     68    141       4162.    
    189      1     68    143       4162.    
    190      1     68    144       4162.    
    191      1     68    145       4162.    
    192      1     68    146       4162.    
    193      1     68    147       4162.    
    194      1     68    148       4162.    
    195      1     68    149       4162.    
    196      1     68    150       4162.    
    197      1     68    152       4162.    
    198      1     68    153       4162.    
    199      1     68    161       4162.    
    200      1     68    162       4162.    
    201      1     68    165       4162.    
    202      1     68    178       4162.    
    203      1     68    180       4162.    
    204      1     68    181       4162.    
    205      1     68    184       4162.    
    206      1     68    190       4162.    
    207      1     68    191       4162.    
    208      1     68    192       4162.    
    209      1     68    196       4162.    
    210      1     68    199       4162.    
    211      1     68    202       4162.    
    212      1     68    203       4162.    
    213      1     68    208       4162.    
    214      1     68    211       4162.    
    215      1     68    212       4162.    
    216      1     68    215       4162.    
    217      1     68    216       4162.    
    218      1     68    225       4162.    
    219      1     68    229       4162.    
    220      1     68    234       4162.    
    221      1     68    237       4162.    
    222      1     68    238       4162.    
    223      1     68    241       4162.    
    224      1     68    243       4162.    
    225      1     68    246       4162.    
    226      1     68    248       4162.    
    227      1     68    250       4162.    
    228      1     69    128       4162.    
    229      1     69    130       4162.    
    230      1     69    131       4162.    
    231      1     69    133       4162.    
    232      1     69    134       4162.    
    233      1     69    135       4162.    
    234      1     69    136       4162.    
    235      1     69    137       4162.    
    236      1     69    138       4162.    
    237      1     69    140       4162.    
    238      1     69    142       4162.    
    239      1     69    143       4162.    
    240      1     69    145       4162.    
    241      1     69    146       4162.    
    242      1     69    148       4162.    
    243      1     69    153       4162.    
    244      1     69    154       4162.    
    245      1     69    160       4162.    
    246      1     69    166       4162.    
    247      1     69    167       4162.    
    248      1     69    178       4162.    
    249      1     69    180       4162.    
    250      1     69    181       4162.    
    251      1     69    184       4162.    
    252      1     69    189       4162.    
    253      1     69    191       4162.    
    254      1     69    193       4162.    
    255      1     69    194       4162.    
    256      1     69    195       4162.    
    257      1     69    196       4162.    
    258      1     69    200       4162.    
    259      1     69    202       4162.    
    260      1     69    203       4162.    
    261      1     69    208       4162.    
    262      1     69    212       4162.    
    263      1     69    216       4162.    
    264      1     69    225       4162.    
    265      1     69    230       4162.    
    266      1     69    235       4162.    
    267      1     69    237       4162.    
    268      1     69    241       4162.    
    269      1     69    244       4162.    
    270      1     69    246       4162.    
    271      1     69    248       4162.    
    272      1     69    251       4162.    
    273      1     69    254       4162.    
    274      1     69    255       4162.    
    275      1     69    256       4162.    
    276      1     70    128       4162.    
    277      1     70    129       4162.    
    278      1     70    131       4162.    
    279      1     70    134       4162.    
    280      1     70    143       4162.    
    281      1     70    144       4162.    
    282      1     70    146       4162.    
    283      1     70    147       4162.    
    284      1     70    148       4162.    
    285      1     70    152       4162.    
    286      1     70    154       4162.    
    287      1     70    160       4162.    
    288      1     70    168       4162.    
    289      1     70    180       4162.    
    290      1     70    181       4162.    
    291      1     70    184       4162.    
    292      1     70    189       4162.    
    293      1     70    191       4162.    
    294      1     70    194       4162.    
    295      1     70    195       4162.    
    296      1     70    196       4162.    
    297      1     70    200       4162.    
    298      1     70    208       4162.    
    299      1     70    212       4162.    
    300      1     70    216       4162.    
    301      1     70    230       4162.    
    302      1     70    231       4162.    
    303      1     70    235       4162.    
    304      1     70    236       4162.    
    305      1     70    241       4162.    
    306      1     70    244       4162.    
    307      1     70    245       4162.    
    308      1     70    249       4162.    
    309      1     70    251       4162.    
    310      1     70    254       4162.    
    311      1     70    256       4162.    
    312      1     70    276       4162.    
    313      1     70    277       4162.    
    314      1     70    278       4162.    
    315      1     71    131       4162.    
    316      1     71    143       4162.    
    317      1     71    145       4162.    
    318      1     71    149       4162.    
    319      1     71    152       4162.    
    320      1     71    154       4162.    
    321      1     71    161       4162.    
    322      1     71    169       4162.    
    323      1     71    170       4162.    
    324      1     71    171       4162.    
    325      1     71    180       4162.    
    326      1     71    181       4162.    
    327      1     71    184       4162.    
    328      1     71    185       4162.    
    329      1     71    186       4162.    
    330      1     71    188       4162.    
    331      1     71    194       4162.    
    332      1     71    195       4162.    
    333      1     71    196       4162.    
    334      1     71    197       4162.    
    335      1     71    201       4162.    
    336      1     71    208       4162.    
    337      1     71    212       4162.    
    338      1     71    217       4162.    
    339      1     71    230       4162.    
    340      1     71    236       4162.    
    341      1     71    241       4162.    
    342      1     71    244       4162.    
    343      1     71    246       4162.    
    344      1     71    249       4162.    
    345      1     71    252       4162.    
    346      1     71    253       4162.    
    347      1     71    254       4162.    
    348      1     71    256       4162.    
    349      1     71    257       4162.    
    350      1     71    266       4162.    
    351      1     71    271       4162.    
    352      1     71    275       4162.    
    353      1     71    279       4162.    
    354      1     72    131       4162.    
    355      1     72    134       4162.    
    356      1     72    135       4162.    
    357      1     72    136       4162.    
    358      1     72    137       4162.    
    359      1     72    138       4162.    
    360      1     72    139       4162.    
    361      1     72    140       4162.    
    362      1     72    154       4162.    
    363      1     72    157       4162.    
    364      1     72    158       4162.    
    365      1     72    159       4162.    
    366      1     72    160       4162.    
    367      1     72    161       4162.    
    368      1     72    162       4162.    
    369      1     72    163       4162.    
    370      1     72    164       4162.    
    371      1     72    165       4162.    
    372      1     72    180       4162.    
    373      1     72    182       4162.    
    374      1     72    186       4162.    
    375      1     72    188       4162.    
    376      1     72    193       4162.    
    377      1     72    194       4162.    
    378      1     72    195       4162.    
    379      1     72    198       4162.    
    380      1     72    202       4162.    
    381      1     72    203       4162.    
    382      1     72    208       4162.    
    383      1     72    212       4162.    
    384      1     72    217       4162.    
    385      1     72    218       4162.    
    386      1     72    231       4162.    
    387      1     72    236       4162.    
    388      1     72    244       4162.    
    389      1     72    245       4162.    
    390      1     72    246       4162.    
    391      1     72    249       4162.    
    392      1     72    254       4162.    
    393      1     72    257       4162.    
    394      1     72    258       4162.    
    395      1     72    261       4162.    
    396      1     72    262       4162.    
    397      1     72    263       4162.    
    398      1     72    265       4162.    
    399      1     72    266       4162.    
    400      1     72    267       4162.    
    401      1     72    270       4162.    
    402      1     72    272       4162.    
    403      1     72    273       4162.    
    404      1     72    274       4162.    
    405      1     72    279       4162.    
    406      1     73    131       4162.    
    407      1     73    132       4162.    
    408      1     73    133       4162.    
    409      1     73    134       4162.    
    410      1     73    141       4162.    
    411      1     73    154       4162.    
    412      1     73    157       4162.    
    413      1     73    158       4162.    
    414      1     73    159       4162.    
    415      1     73    161       4162.    
    416      1     73    162       4162.    
    417      1     73    180       4162.    
    418      1     73    186       4162.    
    419      1     73    189       4162.    
    420      1     73    194       4162.    
    421      1     73    198       4162.    
    422      1     73    209       4162.    
    423      1     73    219       4162.    
    424      1     73    220       4162.    
    425      1     73    221       4162.    
    426      1     73    231       4162.    
    427      1     73    236       4162.    
    428      1     73    244       4162.    
    429      1     73    247       4162.    
    430      1     73    249       4162.    
    431      1     73    254       4162.    
    432      1     73    256       4162.    
    433      1     73    257       4162.    
    434      1     73    258       4162.    
    435      1     73    259       4162.    
    436      1     73    260       4162.    
    437      1     73    262       4162.    
    438      1     73    263       4162.    
    439      1     73    265       4162.    
    440      1     73    267       4162.    
    441      1     73    268       4162.    
    442      1     73    269       4162.    
    443      1     73    278       4162.    
    444      1     74    131       4162.    
    445      1     74    141       4162.    
    446      1     74    149       4162.    
    447      1     74    150       4162.    
    448      1     74    155       4162.    
    449      1     74    156       4162.    
    450      1     74    157       4162.    
    451      1     74    158       4162.    
    452      1     74    159       4162.    
    453      1     74    162       4162.    
    454      1     74    179       4162.    
    455      1     74    186       4162.    
    456      1     74    189       4162.    
    457      1     74    190       4162.    
    458      1     74    195       4162.    
    459      1     74    197       4162.    
    460      1     74    198       4162.    
    461      1     74    209       4162.    
    462      1     74    222       4162.    
    463      1     74    223       4162.    
    464      1     74    231       4162.    
    465      1     74    236       4162.    
    466      1     74    243       4162.    
    467      1     74    244       4162.    
    468      1     74    247       4162.    
    469      1     74    249       4162.    
    470      1     74    252       4162.    
    471      1     74    253       4162.    
    472      1     74    256       4162.    
    473      1     74    259       4162.    
    474      1     74    262       4162.    
    475      1     74    264       4162.    
    476      1     74    265       4162.    
    477      1     74    267       4162.    
    478      1     74    269       4162.    
    479      1     74    278       4162.    
    480      1     74    280       4162.    
    481      1     74    282       4162.    
    482      1     75    141       4162.    
    483      1     75    142       4162.    
    484      1     75    143       4162.    
    485      1     75    148       4162.    
    486      1     75    157       4162.    
    487      1     75    158       4162.    
    488      1     75    159       4162.    
    489      1     75    162       4162.    
    490      1     75    163       4162.    
    491      1     75    186       4162.    
    492      1     75    190       4162.    
    493      1     75    194       4162.    
    494      1     75    197       4162.    
    495      1     75    210       4162.    
    496      1     75    223       4162.    
    497      1     75    232       4162.    
    498      1     75    236       4162.    
    499      1     75    237       4162.    
    500      1     75    247       4162.    
    501      1     75    249       4162.    
    502      1     75    252       4162.    
    503      1     75    253       4162.    
    504      1     75    254       4162.    
    505      1     75    255       4162.    
    506      1     75    257       4162.    
    507      1     75    258       4162.    
    508      1     75    259       4162.    
    509      1     75    265       4162.    
    510      1     75    270       4162.    
    511      1     75    277       4162.    
    512      1     75    278       4162.    
    513      1     75    279       4162.    
    514      1     75    281       4162.    
    515      1     75    282       4162.    
    516      1     76    143       4162.    
    517      1     76    144       4162.    
    518      1     76    149       4162.    
    519      1     76    150       4162.    
    520      1     76    151       4162.    
    521      1     76    157       4162.    
    522      1     76    158       4162.    
    523      1     76    159       4162.    
    524      1     76    160       4162.    
    525      1     76    161       4162.    
    526      1     76    163       4162.    
    527      1     76    194       4162.    
    528      1     76    197       4162.    
    529      1     76    210       4162.    
    530      1     76    211       4162.    
    531      1     76    224       4162.    
    532      1     76    232       4162.    
    533      1     76    238       4162.    
    534      1     76    248       4162.    
    535      1     76    249       4162.    
    536      1     76    256       4162.    
    537      1     76    257       4162.    
    538      1     76    259       4162.    
    539      1     76    265       4162.    
    540      1     76    270       4162.    
    541      1     76    271       4162.    
    542      1     76    282       4162.    
    543      1     76    295       4162.    
    544      1     76    296       4162.    
    545      1     77    144       4162.    
    546      1     77    147       4162.    
    547      1     77    148       4162.    
    548      1     77    149       4162.    
    549      1     77    160       4162.    
    550      1     77    162       4162.    
    551      1     77    164       4162.    
    552      1     77    197       4162.    
    553      1     77    212       4162.    
    554      1     77    224       4162.    
    555      1     77    225       4162.    
    556      1     77    232       4162.    
    557      1     77    233       4162.    
    558      1     77    248       4162.    
    559      1     77    250       4162.    
    560      1     77    258       4162.    
    561      1     77    264       4162.    
    562      1     77    265       4162.    
    563      1     77    271       4162.    
    564      1     77    281       4162.    
    565      1     77    283       4162.    
    566      1     77    284       4162.    
    567      1     77    294       4162.    
    568      1     77    297       4162.    
    569      1     78    145       4162.    
    570      1     78    146       4162.    
    571      1     78    149       4162.    
    572      1     78    153       4162.    
    573      1     78    162       4162.    
    574      1     78    163       4162.    
    575      1     78    171       4162.    
    576      1     78    198       4162.    
    577      1     78    226       4162.    
    578      1     78    227       4162.    
    579      1     78    248       4162.    
    580      1     78    250       4162.    
    581      1     78    259       4162.    
    582      1     78    264       4162.    
    583      1     78    271       4162.    
    584      1     78    281       4162.    
    585      1     78    282       4162.    
    586      1     78    285       4162.    
    587      1     78    294       4162.    
    588      1     78    297       4162.    
    589      1     78    298       4162.    
    590      1     79    149       4162.    
    591      1     79    153       4162.    
    592      1     79    171       4162.    
    593      1     79    172       4162.    
    594      1     79    173       4162.    
    595      1     79    174       4162.    
    596      1     79    198       4162.    
    597      1     79    227       4162.    
    598      1     79    228       4162.    
    599      1     79    229       4162.    
    600      1     79    230       4162.    
    601      1     79    248       4162.    
    602      1     79    251       4162.    
    603      1     79    259       4162.    
    604      1     79    265       4162.    
    605      1     79    271       4162.    
    606      1     79    284       4162.    
    607      1     79    286       4162.    
    608      1     79    287       4162.    
    609      1     79    288       4162.    
    610      1     79    290       4162.    
    611      1     79    291       4162.    
    612      1     79    292       4162.    
    613      1     79    293       4162.    
    614      1     79    294       4162.    
    615      1     79    298       4162.    
    616      1     79    300       4162.    
    617      1     80    150       4162.    
    618      1     80    151       4162.    
    619      1     80    153       4162.    
    620      1     80    160       4162.    
    621      1     80    171       4162.    
    622      1     80    172       4162.    
    623      1     80    198       4162.    
    624      1     80    231       4162.    
    625      1     80    249       4162.    
    626      1     80    252       4162.    
    627      1     80    258       4162.    
    628      1     80    265       4162.    
    629      1     80    266       4162.    
    630      1     80    267       4162.    
    631      1     80    271       4162.    
    632      1     80    285       4162.    
    633      1     80    286       4162.    
    634      1     80    289       4162.    
    635      1     80    290       4162.    
    636      1     80    299       4162.    
    637      1     80    300       4162.    
    638      1     80    301       4162.    
    639      1     80    302       4162.    
    640      1     81    151       4162.    
    641      1     81    152       4162.    
    642      1     81    158       4162.    
    643      1     81    159       4162.    
    644      1     81    161       4162.    
    645      1     81    171       4162.    
    646      1     81    186       4162.    
    647      1     81    187       4162.    
    648      1     81    198       4162.    
    649      1     81    232       4162.    
    650      1     81    233       4162.    
    651      1     81    250       4162.    
    652      1     81    264       4162.    
    653      1     81    267       4162.    
    654      1     81    272       4162.    
    655      1     81    290       4162.    
    656      1     81    301       4162.    
    657      1     82    152       4162.    
    658      1     82    153       4162.    
    659      1     82    158       4162.    
    660      1     82    160       4162.    
    661      1     82    171       4162.    
    662      1     82    186       4162.    
    663      1     82    198       4162.    
    664      1     82    233       4162.    
    665      1     82    234       4162.    
    666      1     82    239       4162.    
    667      1     82    250       4162.    
    668      1     82    264       4162.    
    669      1     82    265       4162.    
    670      1     82    267       4162.    
    671      1     82    290       4162.    
    672      1     82    300       4162.    
    673      1     82    301       4162.    
    674      1     83    154       4162.    
    675      1     83    155       4162.    
    676      1     83    156       4162.    
    677      1     83    157       4162.    
    678      1     83    158       4162.    
    679      1     83    159       4162.    
    680      1     83    160       4162.    
    681      1     83    171       4162.    
    682      1     83    180       4162.    
    683      1     83    183       4162.    
    684      1     83    185       4162.    
    685      1     83    189       4162.    
    686      1     83    190       4162.    
    687      1     83    235       4162.    
    688      1     83    240       4162.    
    689      1     83    251       4162.    
    690      1     83    266       4162.    
    691      1     83    289       4162.    
    692      1     83    301       4162.    
    693      1     83    302       4162.    
    694      1     84    159       4162.    
    695      1     84    163       4162.    
    696      1     84    164       4162.    
    697      1     84    170       4162.    
    698      1     84    178       4162.    
    699      1     84    179       4162.    
    700      1     84    182       4162.    
    701      1     84    184       4162.    
    702      1     84    188       4162.    
    703      1     84    235       4162.    
    704      1     84    240       4162.    
    705      1     84    252       4162.    
    706      1     84    266       4162.    
    707      1     84    289       4162.    
    708      1     84    290       4162.    
    709      1     84    291       4162.    
    710      1     84    303       4162.    
    711      1     85    159       4162.    
    712      1     85    165       4162.    
    713      1     85    166       4162.    
    714      1     85    167       4162.    
    715      1     85    168       4162.    
    716      1     85    169       4162.    
    717      1     85    176       4162.    
    718      1     85    177       4162.    
    719      1     85    182       4162.    
    720      1     85    184       4162.    
    721      1     85    188       4162.    
    722      1     85    190       4162.    
    723      1     85    215       4162.    
    724      1     85    221       4162.    
    725      1     85    240       4162.    
    726      1     85    253       4162.    
    727      1     85    266       4162.    
    728      1     85    291       4162.    
    729      1     85    302       4162.    
    730      1     86    159       4162.    
    731      1     86    161       4162.    
    732      1     86    163       4162.    
    733      1     86    164       4162.    
    734      1     86    165       4162.    
    735      1     86    166       4162.    
    736      1     86    169       4162.    
    737      1     86    171       4162.    
    738      1     86    172       4162.    
    739      1     86    174       4162.    
    740      1     86    175       4162.    
    741      1     86    178       4162.    
    742      1     86    181       4162.    
    743      1     86    184       4162.    
    744      1     86    187       4162.    
    745      1     86    190       4162.    
    746      1     86    208       4162.    
    747      1     86    214       4162.    
    748      1     86    219       4162.    
    749      1     86    220       4162.    
    750      1     86    221       4162.    
    751      1     86    222       4162.    
    752      1     86    224       4162.    
    753      1     86    240       4162.    
    754      1     86    253       4162.    
    755      1     86    254       4162.    
    756      1     86    255       4162.    
    757      1     86    266       4162.    
    758      1     86    290       4162.    
    759      1     86    291       4162.    
    760      1     86    301       4162.    
    761      1     87    159       4162.    
    762      1     87    160       4162.    
    763      1     87    161       4162.    
    764      1     87    163       4162.    
    765      1     87    164       4162.    
    766      1     87    165       4162.    
    767      1     87    166       4162.    
    768      1     87    170       4162.    
    769      1     87    172       4162.    
    770      1     87    174       4162.    
    771      1     87    177       4162.    
    772      1     87    178       4162.    
    773      1     87    181       4162.    
    774      1     87    183       4162.    
    775      1     87    186       4162.    
    776      1     87    189       4162.    
    777      1     87    208       4162.    
    778      1     87    213       4162.    
    779      1     87    219       4162.    
    780      1     87    221       4162.    
    781      1     87    223       4162.    
    782      1     87    228       4162.    
    783      1     87    231       4162.    
    784      1     87    240       4162.    
    785      1     87    256       4162.    
    786      1     87    267       4162.    
    787      1     87    290       4162.    
    788      1     87    301       4162.    
    789      1     88    162       4162.    
    790      1     88    163       4162.    
    791      1     88    164       4162.    
    792      1     88    173       4162.    
    793      1     88    174       4162.    
    794      1     88    175       4162.    
    795      1     88    176       4162.    
    796      1     88    181       4162.    
    797      1     88    183       4162.    
    798      1     88    185       4162.    
    799      1     88    189       4162.    
    800      1     88    190       4162.    
    801      1     88    191       4162.    
    802      1     88    208       4162.    
    803      1     88    213       4162.    
    804      1     88    218       4162.    
    805      1     88    220       4162.    
    806      1     88    223       4162.    
    807      1     88    228       4162.    
    808      1     88    229       4162.    
    809      1     88    230       4162.    
    810      1     88    240       4162.    
    811      1     88    267       4162.    
    812      1     88    290       4162.    
    813      1     88    301       4162.    
    814      1     89    173       4162.    
    815      1     89    176       4162.    
    816      1     89    180       4162.    
    817      1     89    183       4162.    
    818      1     89    184       4162.    
    819      1     89    189       4162.    
    820      1     89    191       4162.    
    821      1     89    194       4162.    
    822      1     89    199       4162.    
    823      1     89    207       4162.    
    824      1     89    211       4162.    
    825      1     89    212       4162.    
    826      1     89    218       4162.    
    827      1     89    220       4162.    
    828      1     89    223       4162.    
    829      1     89    228       4162.    
    830      1     89    230       4162.    
    831      1     89    231       4162.    
    832      1     89    239       4162.    
    833      1     89    267       4162.    
    834      1     89    268       4162.    
    835      1     89    290       4162.    
    836      1     89    301       4162.    
    837      1     90    177       4162.    
    838      1     90    178       4162.    
    839      1     90    180       4162.    
    840      1     90    182       4162.    
    841      1     90    183       4162.    
    842      1     90    186       4162.    
    843      1     90    189       4162.    
    844      1     90    191       4162.    
    845      1     90    192       4162.    
    846      1     90    193       4162.    
    847      1     90    197       4162.    
    848      1     90    199       4162.    
    849      1     90    202       4162.    
    850      1     90    208       4162.    
    851      1     90    209       4162.    
    852      1     90    211       4162.    
    853      1     90    212       4162.    
    854      1     90    217       4162.    
    855      1     90    219       4162.    
    856      1     90    220       4162.    
    857      1     90    221       4162.    
    858      1     90    222       4162.    
    859      1     90    227       4162.    
    860      1     90    228       4162.    
    861      1     90    230       4162.    
    862      1     90    238       4162.    
    863      1     90    239       4162.    
    864      1     90    252       4162.    
    865      1     90    268       4162.    
    866      1     90    290       4162.    
    867      1     91    179       4162.    
    868      1     91    181       4162.    
    869      1     91    182       4162.    
    870      1     91    183       4162.    
    871      1     91    184       4162.    
    872      1     91    185       4162.    
    873      1     91    186       4162.    
    874      1     91    189       4162.    
    875      1     91    191       4162.    
    876      1     91    195       4162.    
    877      1     91    196       4162.    
    878      1     91    199       4162.    
    879      1     91    202       4162.    
    880      1     91    206       4162.    
    881      1     91    207       4162.    
    882      1     91    209       4162.    
    883      1     91    210       4162.    
    884      1     91    217       4162.    
    885      1     91    219       4162.    
    886      1     91    221       4162.    
    887      1     91    227       4162.    
    888      1     91    229       4162.    
    889      1     91    231       4162.    
    890      1     91    237       4162.    
    891      1     91    247       4162.    
    892      1     91    248       4162.    
    893      1     91    252       4162.    
    894      1     91    268       4162.    
    895      1     91    290       4162.    
    896      1     92    180       4162.    
    897      1     92    181       4162.    
    898      1     92    182       4162.    
    899      1     92    183       4162.    
    900      1     92    189       4162.    
    901      1     92    190       4162.    
    902      1     92    195       4162.    
    903      1     92    198       4162.    
    904      1     92    199       4162.    
    905      1     92    202       4162.    
    906      1     92    206       4162.    
    907      1     92    211       4162.    
    908      1     92    216       4162.    
    909      1     92    219       4162.    
    910      1     92    221       4162.    
    911      1     92    227       4162.    
    912      1     92    229       4162.    
    913      1     92    230       4162.    
    914      1     92    231       4162.    
    915      1     92    236       4162.    
    916      1     92    246       4162.    
    917      1     92    252       4162.    
    918      1     92    255       4162.    
    919      1     92    256       4162.    
    920      1     92    257       4162.    
    921      1     92    291       4162.    
    922      1     93    183       4162.    
    923      1     93    184       4162.    
    924      1     93    190       4162.    
    925      1     93    194       4162.    
    926      1     93    199       4162.    
    927      1     93    202       4162.    
    928      1     93    203       4162.    
    929      1     93    207       4162.    
    930      1     93    214       4162.    
    931      1     93    215       4162.    
    932      1     93    219       4162.    
    933      1     93    220       4162.    
    934      1     93    224       4162.    
    935      1     93    226       4162.    
    936      1     93    229       4162.    
    937      1     93    230       4162.    
    938      1     93    235       4162.    
    939      1     93    244       4162.    
    940      1     93    245       4162.    
    941      1     93    252       4162.    
    942      1     93    254       4162.    
    943      1     93    255       4162.    
    944      1     93    290       4162.    
    945      1     94    185       4162.    
    946      1     94    186       4162.    
    947      1     94    187       4162.    
    948      1     94    188       4162.    
    949      1     94    190       4162.    
    950      1     94    193       4162.    
    951      1     94    199       4162.    
    952      1     94    202       4162.    
    953      1     94    203       4162.    
    954      1     94    205       4162.    
    955      1     94    207       4162.    
    956      1     94    214       4162.    
    957      1     94    220       4162.    
    958      1     94    224       4162.    
    959      1     94    226       4162.    
    960      1     94    228       4162.    
    961      1     94    229       4162.    
    962      1     94    230       4162.    
    963      1     94    235       4162.    
    964      1     94    243       4162.    
    965      1     94    247       4162.    
    966      1     94    252       4162.    
    967      1     94    253       4162.    
    968      1     94    260       4162.    
    969      1     94    290       4162.    
    970      1     95    189       4162.    
    971      1     95    190       4162.    
    972      1     95    191       4162.    
    973      1     95    192       4162.    
    974      1     95    199       4162.    
    975      1     95    202       4162.    
    976      1     95    203       4162.    
    977      1     95    204       4162.    
    978      1     95    205       4162.    
    979      1     95    207       4162.    
    980      1     95    208       4162.    
    981      1     95    213       4162.    
    982      1     95    214       4162.    
    983      1     95    220       4162.    
    984      1     95    222       4162.    
    985      1     95    224       4162.    
    986      1     95    226       4162.    
    987      1     95    228       4162.    
    988      1     95    230       4162.    
    989      1     95    235       4162.    
    990      1     95    237       4162.    
    991      1     95    243       4162.    
    992      1     95    247       4162.    
    993      1     95    252       4162.    
    994      1     95    260       4162.    
    995      1     95    289       4162.    
    996      1     95    290       4162.    
    997      1     96    192       4162.    
    998      1     96    198       4162.    
    999      1     96    202       4162.    
   1000      1     96    203       4162.    
   1001      1     96    204       4162.    
   1002      1     96    205       4162.    
   1003      1     96    207       4162.    
   1004      1     96    208       4162.    
   1005      1     96    209       4162.    
   1006      1     96    210       4162.    
   1007      1     96    213       4162.    
   1008      1     96    219       4162.    
   1009      1     96    220       4162.    
   1010      1     96    222       4162.    
   1011      1     96    224       4162.    
   1012      1     96    226       4162.    
   1013      1     96    227       4162.    
   1014      1     96    228       4162.    
   1015      1     96    230       4162.    
   1016      1     96    234       4162.    
   1017      1     96    236       4162.    
   1018      1     96    243       4162.    
   1019      1     96    247       4162.    
   1020      1     96    252       4162.    
   1021      1     96    260       4162.    
   1022      1     96    288       4162.    
   1023      1     97    193       4162.    
   1024      1     97    197       4162.    
   1025      1     97    198       4162.    
   1026      1     97    199       4162.    
   1027      1     97    200       4162.    
   1028      1     97    201       4162.    
   1029      1     97    202       4162.    
   1030      1     97    203       4162.    
   1031      1     97    204       4162.    
   1032      1     97    205       4162.    
   1033      1     97    206       4162.    
   1034      1     97    207       4162.    
   1035      1     97    210       4162.    
   1036      1     97    211       4162.    
   1037      1     97    212       4162.    
   1038      1     97    213       4162.    
   1039      1     97    214       4162.    
   1040      1     97    218       4162.    
   1041      1     97    223       4162.    
   1042      1     97    226       4162.    
   1043      1     97    227       4162.    
   1044      1     97    228       4162.    
   1045      1     97    229       4162.    
   1046      1     97    234       4162.    
   1047      1     97    236       4162.    
   1048      1     97    242       4162.    
   1049      1     97    247       4162.    
   1050      1     97    251       4162.    
   1051      1     97    259       4162.    
   1052      1     97    288       4162.    
   1053      1     98    194       4162.    
   1054      1     98    195       4162.    
   1055      1     98    196       4162.    
   1056      1     98    197       4162.    
   1057      1     98    214       4162.    
   1058      1     98    218       4162.    
   1059      1     98    223       4162.    
   1060      1     98    226       4162.    
   1061      1     98    227       4162.    
   1062      1     98    228       4162.    
   1063      1     98    229       4162.    
   1064      1     98    233       4162.    
   1065      1     98    234       4162.    
   1066      1     98    235       4162.    
   1067      1     98    241       4162.    
   1068      1     98    247       4162.    
   1069      1     98    251       4162.    
   1070      1     98    258       4162.    
   1071      1     98    288       4162.    
   1072      1     99    215       4162.    
   1073      1     99    217       4162.    
   1074      1     99    221       4162.    
   1075      1     99    222       4162.    
   1076      1     99    223       4162.    
   1077      1     99    226       4162.    
   1078      1     99    228       4162.    
   1079      1     99    233       4162.    
   1080      1     99    234       4162.    
   1081      1     99    240       4162.    
   1082      1     99    245       4162.    
   1083      1     99    248       4162.    
   1084      1     99    251       4162.    
   1085      1     99    254       4162.    
   1086      1     99    255       4162.    
   1087      1     99    256       4162.    
   1088      1     99    257       4162.    
   1089      1     99    258       4162.    
   1090      1     99    274       4162.    
   1091      1     99    277       4162.    
   1092      1     99    278       4162.    
   1093      1     99    288       4162.    
   1094      1    100    216       4162.    
   1095      1    100    217       4162.    
   1096      1    100    218       4162.    
   1097      1    100    220       4162.    
   1098      1    100    224       4162.    
   1099      1    100    225       4162.    
   1100      1    100    226       4162.    
   1101      1    100    227       4162.    
   1102      1    100    233       4162.    
   1103      1    100    234       4162.    
   1104      1    100    237       4162.    
   1105      1    100    240       4162.    
   1106      1    100    245       4162.    
   1107      1    100    249       4162.    
   1108      1    100    251       4162.    
   1109      1    100    252       4162.    
   1110      1    100    253       4162.    
   1111      1    100    264       4162.    
   1112      1    100    269       4162.    
   1113      1    100    270       4162.    
   1114      1    100    271       4162.    
   1115      1    100    272       4162.    
   1116      1    100    273       4162.    
   1117      1    100    274       4162.    
   1118      1    100    275       4162.    
   1119      1    100    276       4162.    
   1120      1    100    287       4162.    
   1121      1    101    219       4162.    
   1122      1    101    227       4162.    
   1123      1    101    228       4162.    
   1124      1    101    229       4162.    
   1125      1    101    232       4162.    
   1126      1    101    233       4162.    
   1127      1    101    234       4162.    
   1128      1    101    237       4162.    
   1129      1    101    240       4162.    
   1130      1    101    244       4162.    
   1131      1    101    245       4162.    
   1132      1    101    249       4162.    
   1133      1    101    250       4162.    
   1134      1    101    251       4162.    
   1135      1    101    264       4162.    
   1136      1    101    267       4162.    
   1137      1    101    268       4162.    
   1138      1    101    272       4162.    
   1139      1    101    273       4162.    
   1140      1    101    286       4162.    
   1141      1    102    230       4162.    
   1142      1    102    231       4162.    
   1143      1    102    232       4162.    
   1144      1    102    233       4162.    
   1145      1    102    237       4162.    
   1146      1    102    240       4162.    
   1147      1    102    243       4162.    
   1148      1    102    251       4162.    
   1149      1    102    263       4162.    
   1150      1    102    264       4162.    
   1151      1    102    267       4162.    
   1152      1    103    231       4162.    
   1153      1    103    232       4162.    
   1154      1    103    233       4162.    
   1155      1    103    234       4162.    
   1156      1    103    235       4162.    
   1157      1    103    236       4162.    
   1158      1    103    237       4162.    
   1159      1    103    238       4162.    
   1160      1    103    240       4162.    
   1161      1    103    242       4162.    
   1162      1    103    248       4162.    
   1163      1    103    251       4162.    
   1164      1    103    256       4162.    
   1165      1    103    263       4162.    
   1166      1    103    266       4162.    
   1167      1    103    267       4162.    
   1168      1    104    239       4162.    
   1169      1    104    240       4162.    
   1170      1    104    242       4162.    
   1171      1    104    248       4162.    
   1172      1    104    250       4162.    
   1173      1    104    251       4162.    
   1174      1    104    256       4162.    
   1175      1    104    263       4162.    
   1176      1    104    266       4162.    
   1177      1    105    241       4162.    
   1178      1    105    249       4162.    
   1179      1    105    256       4162.    
   1180      1    105    257       4162.    
   1181      1    105    259       4162.    
   1182      1    105    263       4162.    
   1183      1    105    265       4162.    
   1184      1    105    266       4162.    
   1185      1    105    268       4162.    
   1186      1    106    240       4162.    
   1187      1    106    245       4162.    
   1188      1    106    249       4162.    
   1189      1    106    256       4162.    
   1190      1    106    259       4162.    
   1191      1    106    263       4162.    
   1192      1    106    265       4162.    
   1193      1    106    266       4162.    
   1194      1    106    267       4162.    
   1195      1    107    240       4162.    
   1196      1    107    245       4162.    
   1197      1    107    249       4162.    
   1198      1    107    256       4162.    
   1199      1    107    259       4162.    
   1200      1    107    261       4162.    
   1201      1    107    262       4162.    
   1202      1    107    263       4162.    
   1203      1    107    264       4162.    
   1204      1    108    240       4162.    
   1205      1    108    245       4162.    
   1206      1    108    248       4162.    
   1207      1    108    255       4162.    
   1208      1    108    256       4162.    
   1209      1    108    258       4162.    
   1210      1    108    259       4162.    
   1211      1    108    260       4162.    
   1212      1    108    261       4162.    
   1213      1    109    241       4162.    
   1214      1    109    242       4162.    
   1215      1    109    243       4162.    
   1216      1    109    245       4162.    
   1217      1    109    247       4162.    
   1218      1    109    250       4162.    
   1219      1    109    252       4162.    
   1220      1    109    255       4162.    
   1221      1    109    258       4162.    
   1222      1    109    259       4162.    
   1223      1    109    260       4162.    
   1224      1    109    294       4162.    
   1225      1    109    339       4162.    
   1226      1    110    244       4162.    
   1227      1    110    245       4162.    
   1228      1    110    246       4162.    
   1229      1    110    249       4162.    
   1230      1    110    252       4162.    
   1231      1    110    255       4162.    
   1232      1    110    257       4162.    
   1233      1    110    295       4162.    
   1234      1    110    332       4162.    
   1235      1    110    333       4162.    
   1236      1    110    338       4162.    
   1237      1    111    246       4162.    
   1238      1    111    249       4162.    
   1239      1    111    252       4162.    
   1240      1    111    254       4162.    
   1241      1    111    256       4162.    
   1242      1    111    271       4162.    
   1243      1    111    285       4162.    
   1244      1    111    286       4162.    
   1245      1    111    295       4162.    
   1246      1    111    332       4162.    
   1247      1    111    338       4162.    
   1248      1    112    247       4162.    
   1249      1    112    249       4162.    
   1250      1    112    251       4162.    
   1251      1    112    252       4162.    
   1252      1    112    253       4162.    
   1253      1    112    254       4162.    
   1254      1    112    255       4162.    
   1255      1    112    271       4162.    
   1256      1    112    284       4162.    
   1257      1    112    285       4162.    
   1258      1    112    295       4162.    
   1259      1    112    333       4162.    
   1260      1    113    248       4162.    
   1261      1    113    249       4162.    
   1262      1    113    250       4162.    
   1263      1    113    255       4162.    
   1264      1    113    270       4162.    
   1265      1    113    277       4162.    
   1266      1    113    278       4162.    
   1267      1    113    283       4162.    
   1268      1    113    295       4162.    
   1269      1    113    298       4162.    
   1270      1    113    299       4162.    
   1271      1    113    322       4162.    
   1272      1    113    332       4162.    
   1273      1    114    254       4162.    
   1274      1    114    262       4162.    
   1275      1    114    263       4162.    
   1276      1    114    269       4162.    
   1277      1    114    270       4162.    
   1278      1    114    276       4162.    
   1279      1    114    283       4162.    
   1280      1    114    291       4162.    
   1281      1    114    296       4162.    
   1282      1    114    297       4162.    
   1283      1    114    298       4162.    
   1284      1    114    323       4162.    
   1285      1    114    333       4162.    
   1286      1    115    254       4162.    
   1287      1    115    261       4162.    
   1288      1    115    270       4162.    
   1289      1    115    275       4162.    
   1290      1    115    276       4162.    
   1291      1    115    283       4162.    
   1292      1    115    291       4162.    
   1293      1    115    297       4162.    
   1294      1    115    298       4162.    
   1295      1    115    304       4162.    
   1296      1    115    306       4162.    
   1297      1    115    323       4162.    
   1298      1    115    324       4162.    
   1299      1    115    333       4162.    
   1300      1    116    254       4162.    
   1301      1    116    255       4162.    
   1302      1    116    260       4162.    
   1303      1    116    261       4162.    
   1304      1    116    270       4162.    
   1305      1    116    271       4162.    
   1306      1    116    272       4162.    
   1307      1    116    273       4162.    
   1308      1    116    274       4162.    
   1309      1    116    283       4162.    
   1310      1    116    291       4162.    
   1311      1    116    298       4162.    
   1312      1    116    299       4162.    
   1313      1    116    304       4162.    
   1314      1    116    306       4162.    
   1315      1    116    325       4162.    
   1316      1    116    326       4162.    
   1317      1    117    255       4162.    
   1318      1    117    256       4162.    
   1319      1    117    257       4162.    
   1320      1    117    258       4162.    
   1321      1    117    259       4162.    
   1322      1    117    267       4162.    
   1323      1    117    268       4162.    
   1324      1    117    269       4162.    
   1325      1    117    282       4162.    
   1326      1    117    291       4162.    
   1327      1    117    299       4162.    
   1328      1    117    305       4162.    
   1329      1    117    306       4162.    
   1330      1    117    312       4162.    
   1331      1    117    313       4162.    
   1332      1    117    327       4162.    
   1333      1    118    256       4162.    
   1334      1    118    258       4162.    
   1335      1    118    267       4162.    
   1336      1    118    281       4162.    
   1337      1    118    282       4162.    
   1338      1    118    291       4162.    
   1339      1    118    298       4162.    
   1340      1    118    305       4162.    
   1341      1    118    312       4162.    
   1342      1    118    323       4162.    
   1343      1    118    327       4162.    
   1344      1    119    256       4162.    
   1345      1    119    257       4162.    
   1346      1    119    267       4162.    
   1347      1    119    281       4162.    
   1348      1    119    291       4162.    
   1349      1    119    298       4162.    
   1350      1    119    305       4162.    
   1351      1    119    312       4162.    
   1352      1    119    324       4162.    
   1353      1    119    327       4162.    
   1354      1    120    257       4162.    
   1355      1    120    260       4162.    
   1356      1    120    261       4162.    
   1357      1    120    262       4162.    
   1358      1    120    266       4162.    
   1359      1    120    267       4162.    
   1360      1    120    280       4162.    
   1361      1    120    291       4162.    
   1362      1    120    298       4162.    
   1363      1    120    300       4162.    
   1364      1    120    306       4162.    
   1365      1    120    312       4162.    
   1366      1    120    325       4162.    
   1367      1    120    326       4162.    
   1368      1    120    327       4162.    
   1369      1    121    257       4162.    
   1370      1    121    258       4162.    
   1371      1    121    259       4162.    
   1372      1    121    263       4162.    
   1373      1    121    264       4162.    
   1374      1    121    266       4162.    
   1375      1    121    270       4162.    
   1376      1    121    280       4162.    
   1377      1    121    291       4162.    
   1378      1    121    298       4162.    
   1379      1    121    299       4162.    
   1380      1    121    300       4162.    
   1381      1    121    305       4162.    
   1382      1    121    311       4162.    
   1383      1    121    312       4162.    
   1384      1    121    326       4162.    
   1385      1    121    327       4162.    
   1386      1    122    263       4162.    
   1387      1    122    265       4162.    
   1388      1    122    271       4162.    
   1389      1    122    272       4162.    
   1390      1    122    278       4162.    
   1391      1    122    279       4162.    
   1392      1    122    291       4162.    
   1393      1    122    298       4162.    
   1394      1    122    305       4162.    
   1395      1    122    311       4162.    
   1396      1    123    263       4162.    
   1397      1    123    273       4162.    
   1398      1    123    278       4162.    
   1399      1    123    291       4162.    
   1400      1    123    295       4162.    
   1401      1    123    299       4162.    
   1402      1    123    305       4162.    
   1403      1    123    310       4162.    
   1404      1    123    326       4162.    
   1405      1    124    264       4162.    
   1406      1    124    272       4162.    
   1407      1    124    274       4162.    
   1408      1    124    278       4162.    
   1409      1    124    291       4162.    
   1410      1    124    295       4162.    
   1411      1    124    300       4162.    
   1412      1    124    304       4162.    
   1413      1    124    310       4162.    
   1414      1    124    326       4162.    
   1415      1    125    265       4162.    
   1416      1    125    267       4162.    
   1417      1    125    268       4162.    
   1418      1    125    271       4162.    
   1419      1    125    274       4162.    
   1420      1    125    277       4162.    
   1421      1    125    291       4162.    
   1422      1    125    295       4162.    
   1423      1    125    300       4162.    
   1424      1    125    301       4162.    
   1425      1    125    302       4162.    
   1426      1    125    303       4162.    
   1427      1    125    304       4162.    
   1428      1    125    310       4162.    
   1429      1    125    325       4162.    
   1430      1    126    266       4162.    
   1431      1    126    267       4162.    
   1432      1    126    271       4162.    
   1433      1    126    274       4162.    
   1434      1    126    277       4162.    
   1435      1    126    291       4162.    
   1436      1    126    295       4162.    
   1437      1    126    300       4162.    
   1438      1    126    310       4162.    
   1439      1    126    312       4162.    
   1440      1    127    267       4162.    
   1441      1    127    271       4162.    
   1442      1    127    273       4162.    
   1443      1    127    277       4162.    
   1444      1    127    286       4162.    
   1445      1    127    290       4162.    
   1446      1    127    294       4162.    
   1447      1    127    299       4162.    
   1448      1    127    310       4162.    
   1449      1    127    311       4162.    
   1450      1    127    324       4162.    
   1451      1    128    267       4162.    
   1452      1    128    270       4162.    
   1453      1    128    271       4162.    
   1454      1    128    273       4162.    
   1455      1    128    276       4162.    
   1456      1    128    286       4162.    
   1457      1    128    287       4162.    
   1458      1    128    288       4162.    
   1459      1    128    290       4162.    
   1460      1    128    294       4162.    
   1461      1    128    299       4162.    
   1462      1    128    303       4162.    
   1463      1    128    309       4162.    
   1464      1    128    310       4162.    
   1465      1    128    311       4162.    
   1466      1    128    323       4162.    
   1467      1    129    268       4162.    
   1468      1    129    269       4162.    
   1469      1    129    271       4162.    
   1470      1    129    272       4162.    
   1471      1    129    273       4162.    
   1472      1    129    276       4162.    
   1473      1    129    277       4162.    
   1474      1    129    289       4162.    
   1475      1    129    290       4162.    
   1476      1    129    293       4162.    
   1477      1    129    299       4162.    
   1478      1    129    300       4162.    
   1479      1    129    301       4162.    
   1480      1    129    302       4162.    
   1481      1    129    305       4162.    
   1482      1    129    307       4162.    
   1483      1    129    308       4162.    
   1484      1    129    311       4162.    
   1485      1    130    273       4162.    
   1486      1    130    274       4162.    
   1487      1    130    276       4162.    
   1488      1    130    277       4162.    
   1489      1    130    288       4162.    
   1490      1    130    289       4162.    
   1491      1    130    290       4162.    
   1492      1    130    291       4162.    
   1493      1    130    292       4162.    
   1494      1    130    299       4162.    
   1495      1    130    303       4162.    
   1496      1    130    304       4162.    
   1497      1    130    305       4162.    
   1498      1    130    306       4162.    
   1499      1    130    310       4162.    
   1500      1    131    274       4162.    
   1501      1    131    277       4162.    
   1502      1    131    287       4162.    
   1503      1    131    289       4162.    
   1504      1    131    292       4162.    
   1505      1    131    293       4162.    
   1506      1    131    294       4162.    
   1507      1    131    299       4162.    
   1508      1    131    303       4162.    
   1509      1    131    310       4162.    
   1510      1    132    274       4162.    
   1511      1    132    276       4162.    
   1512      1    132    283       4162.    
   1513      1    132    288       4162.    
   1514      1    132    295       4162.    
   1515      1    132    296       4162.    
   1516      1    132    297       4162.    
   1517      1    132    299       4162.    
   1518      1    132    301       4162.    
   1519      1    132    302       4162.    
   1520      1    132    310       4162.    
   1521      1    133    275       4162.    
   1522      1    133    276       4162.    
   1523      1    133    283       4162.    
   1524      1    133    288       4162.    
   1525      1    133    297       4162.    
   1526      1    133    298       4162.    
   1527      1    133    300       4162.    
   1528      1    133    301       4162.    
   1529      1    133    304       4162.    
   1530      1    133    310       4162.    
   1531      1    133    317       4162.    
   1532      1    134    275       4162.    
   1533      1    134    276       4162.    
   1534      1    134    284       4162.    
   1535      1    134    289       4162.    
   1536      1    134    299       4162.    
   1537      1    134    300       4162.    
   1538      1    134    304       4162.    
   1539      1    134    310       4162.    
   1540      1    134    315       4162.    
   1541      1    134    316       4162.    
   1542      1    135    277       4162.    
   1543      1    135    278       4162.    
   1544      1    135    284       4162.    
   1545      1    135    288       4162.    
   1546      1    135    301       4162.    
   1547      1    135    302       4162.    
   1548      1    135    303       4162.    
   1549      1    135    305       4162.    
   1550      1    135    310       4162.    
   1551      1    135    313       4162.    
   1552      1    135    314       4162.    
   1553      1    136    279       4162.    
   1554      1    136    282       4162.    
   1555      1    136    285       4162.    
   1556      1    136    286       4162.    
   1557      1    136    287       4162.    
   1558      1    136    301       4162.    
   1559      1    136    304       4162.    
   1560      1    136    308       4162.    
   1561      1    136    309       4162.    
   1562      1    136    310       4162.    
   1563      1    136    312       4162.    
   1564      1    137    280       4162.    
   1565      1    137    282       4162.    
   1566      1    137    285       4162.    
   1567      1    137    302       4162.    
   1568      1    137    303       4162.    
   1569      1    137    306       4162.    
   1570      1    137    307       4162.    
   1571      1    137    309       4162.    
   1572      1    137    311       4162.    
   1573      1    138    281       4162.    
   1574      1    138    282       4162.    
   1575      1    138    284       4162.    
   1576      1    138    302       4162.    
   1577      1    138    307       4162.    
   1578      1    139    282       4162.    
   1579      1    139    283       4162.    
   1580      1    139    284       4162.    
   1581      1    139    302       4162.    
   1582      1    139    303       4162.    
   1583      1    139    305       4162.    
   1584      1    139    306       4162.    
   1585      1    140    302       4162.    
   1586      1    140    303       4162.    
   1587      1    140    304       4162.    
   1588      1    140    305       4162.    
   1589      1    140    306       4162.    
   1590      1    140    307       4162.    
   1591      1    141    302       4162.    

   1591 WELLS

  54036 DRAINS



                           RECHARGE
 READING ON UNIT   19 WITH FORMAT: (342E15.6)          
 
 SOLVING FOR HEAD 

    ------------------------------------------------
       NWT REQUIRED            6 OUTER ITERATIONS 
       AND A TOTAL OF         12 INNER ITERATIONS.
    ------------------------------------------------

 OUTPUT CONTROL FOR STRESS PERIOD    1   TIME STEP    1
    SAVE HEAD FOR ALL LAYERS

 HEAD WILL BE SAVED ON UNIT   51 AT END OF TIME STEP    1, STRESS PERIOD    1
1
  VOLUMETRIC BUDGET FOR ENTIRE MODEL AT END OF TIME STEP    1, STRESS PERIOD   1
  ------------------------------------------------------------------------------

     CUMULATIVE VOLUMES      L**3       RATES FOR THIS TIME STEP      L**3/T
     ------------------                 ------------------------

           IN:                                      IN:
           ---                                      ---
             STORAGE =    18468368.0000               STORAGE =    18468368.0000
       CONSTANT HEAD =           0.0000         CONSTANT HEAD =           0.0000
               WELLS =     6612951.0000                 WELLS =     6612951.0000
              DRAINS =           0.0000                DRAINS =           0.0000
            RECHARGE =     7370184.5000              RECHARGE =     7370184.5000

            TOTAL IN =    32451504.0000              TOTAL IN =    32451504.0000

          OUT:                                     OUT:
          ----                                     ----
             STORAGE =     1156258.5000               STORAGE =     1156258.5000
       CONSTANT HEAD =           0.0000         CONSTANT HEAD =           0.0000
               WELLS =           0.0000                 WELLS =           0.0000
              DRAINS =    31301748.0000                DRAINS =    31301748.0000
            RECHARGE =           0.0000              RECHARGE =           0.0000

           TOTAL OUT =    32458006.0000             TOTAL OUT =    32458006.0000

            IN - OUT =       -6502.0000              IN - OUT =       -6502.0000

 PERCENT DISCREPANCY =          -0.02     PERCENT DISCREPANCY =          -0.02






         TIME SUMMARY AT END OF TIME STEP    1 IN STRESS PERIOD    1
                    SECONDS     MINUTES      HOURS       DAYS        YEARS
                    -----------------------------------------------------------
   TIME STEP LENGTH  86400.      1440.0      24.000      1.0000     2.73785E-03
 STRESS PERIOD TIME  86400.      1440.0      24.000      1.0000     2.73785E-03
         TOTAL TIME  86400.      1440.0      24.000      1.0000     2.73785E-03
1

 Run end date and time (yyyy/mm/dd hh:mm:ss): 2020/04/27 22:46:04
 Elapsed run time:  0.508 Seconds

