                                  MODFLOW-NWT-SWR1 
      U.S. GEOLOGICAL SURVEY MODULAR FINITE-DIFFERENCE GROUNDWATER-FLOW MODEL
                             VERSION 1.1.4 4/01/2018
                    BASED ON MODFLOW-2005 VERSION 1.12.00 02/03/2017

 LIST FILE: C:/GitHub/FUSE/Modflow/output/Bhima_transient.list
                         UNIT    2

 OPENING C:/GitHub/FUSE/Modflow/output/Bhima_transient.dis
 FILE TYPE:DIS   UNIT   11   STATUS:OLD    
 FORMAT:FORMATTED              ACCESS:SEQUENTIAL          

 OPENING C:/GitHub/FUSE/Modflow/output/Bhima_transient.bas
 FILE TYPE:BAS6   UNIT   13   STATUS:OLD    
 FORMAT:FORMATTED              ACCESS:SEQUENTIAL          

 OPENING C:/GitHub/FUSE/Modflow/output/Bhima_transient.upw
 FILE TYPE:UPW   UNIT   31   STATUS:OLD    
 FORMAT:FORMATTED              ACCESS:SEQUENTIAL          

 OPENING C:/GitHub/FUSE/Modflow/output/Bhima_transient.nwt
 FILE TYPE:NWT   UNIT   32   STATUS:OLD    
 FORMAT:FORMATTED              ACCESS:SEQUENTIAL          

 OPENING C:/GitHub/FUSE/Modflow/output/Bhima_transient.drn
 FILE TYPE:DRN   UNIT   21   STATUS:OLD    
 FORMAT:FORMATTED              ACCESS:SEQUENTIAL          

 OPENING C:/GitHub/FUSE/Modflow/output/Bhima_transient.wel
 FILE TYPE:WEL   UNIT   20   STATUS:OLD    
 FORMAT:FORMATTED              ACCESS:SEQUENTIAL          

 OPENING C:/GitHub/FUSE/Modflow/output/Bhima_transient.rch
 FILE TYPE:RCH   UNIT   19   STATUS:OLD    
 FORMAT:FORMATTED              ACCESS:SEQUENTIAL          

 OPENING C:/GitHub/FUSE/Modflow/output/Bhima_transient.oc
 FILE TYPE:OC   UNIT   14   STATUS:OLD    
 FORMAT:FORMATTED              ACCESS:SEQUENTIAL          

 OPENING C:/GitHub/FUSE/Modflow/output/Bhima_transient.hds
 FILE TYPE:DATA(BINARY)   UNIT   51   STATUS:REPLACE
 FORMAT:BINARY                 ACCESS:SEQUENTIAL          

 OPENING C:/GitHub/FUSE/Modflow/output/Bhima_transient.out
 FILE TYPE:DATA   UNIT   50   STATUS:UNKNOWN
 FORMAT:FORMATTED              ACCESS:SEQUENTIAL          

 BAS -- BASIC PACKAGE, VERSION 1.1.4, 4/01/2018 INPUT READ FROM UNIT   13
 
 MODFLOW was compiled using mixed precision
 Precision of REAL variables:           6
 Precision of DOUBLE PRECISION variables:          15

 DISCRETIZATION INPUT DATA READ FROM UNIT   11
 # DIS package for  MODFLOW-NWT, generated by Flopy.
    1 LAYERS       158 ROWS       342 COLUMNS
    1 STRESS PERIOD(S) IN SIMULATION
 MODEL TIME UNIT IS DAYS
 MODEL LENGTH UNIT IS METERS
  Confining bed flag for each layer:
   0

                     DELR =   500.000    

                     DELC =   500.000    



           TOP ELEVATION OF LAYER 1
 READING ON UNIT   11 WITH FORMAT: (342E15.6)          



             MODEL LAYER BOTTOM EL. FOR LAYER   1
 READING ON UNIT   11 WITH FORMAT: (342E15.6)          


 STRESS PERIOD     LENGTH       TIME STEPS     MULTIPLIER FOR DELT    SS FLAG
 ----------------------------------------------------------------------------
        1         1.000000          1                    1.000         TR

 TRANSIENT SIMULATION



 
 # BAS6 package for  MODFLOW-NWT, generated by Flopy.                            
 THE FREE FORMAT OPTION HAS BEEN SELECTED



                     BOUNDARY ARRAY FOR LAYER   1
 READING ON UNIT   13 WITH FORMAT: (342I10)            

 AQUIFER HEAD WILL BE SET TO  -999.99     AT ALL NO-FLOW NODES (IBOUND=0).



                       INITIAL HEAD FOR LAYER   1
 READING ON UNIT   13 WITH FORMAT: (342E15.6)          
 # OC package for  MODFLOW-NWT, generated by Flopy.

 OUTPUT CONTROL IS SPECIFIED ONLY AT TIME STEPS FOR WHICH OUTPUT IS DESIRED
 COMPACT CELL-BY-CELL BUDGET FILES WILL BE WRITTEN
 AUXILIARY DATA WILL BE SAVED IN CELL-BY-CELL BUDGET FILES
 HEAD PRINT FORMAT CODE IS   0    DRAWDOWN PRINT FORMAT CODE IS   0
 HEADS WILL BE SAVED ON UNIT   51    DRAWDOWNS WILL BE SAVED ON UNIT    0
 # NWT package for  MODFLOW-NWT, generated by Flopy.

 NWT1 -- Newton Solver, VERSION 1.1.4, 4/01/2018
         INPUT READ FROM UNIT 32

 COMPLEX OPTION:
 DEFAULT SOLVER INPUT VALUES REFLECT STRONGLY NONLINEAR MODEL
 ***GMRES linear solver will be used***
 
   CONVERGENCE CRITERION OF   0.100000E-01 FOR HEAD SOLUTION
   AND A TOLERANCE OF   0.500000E+03 FOR FLOW SOLUTION AND 
   A MAXIMUM OF   100 OUTER ITERATIONS. 


   D-B-D REDUCTION FACTOR OF    0.850000E+00 AND 
   A D-B-D INCREASE FACTOR OF    0.100000E-04 AND 
   A D-B-D RELAXATION OF    0.000000E+00 AND 
   A MOMENTUM FACTOR OF    0.100000E+00 .


   BACKTRACKING IS ACTIVE 
   THE MAXIMUM NUMBER OF BACKTRACKS IS    50 AND 
   THE BACKTRACKING TOLERANCE IS    0.110000E+01 AND
   THE BACKTRACKING REDUCTION FACTOR IS    0.700000E+00

 GMRES -- LINEAR SOLUTION BY GMRES PACKAGE 
     adapted for HYDROTHERM by Kipp and others (2008)
     using software originally developed by Saad (1990) 32
     using algorithms described in Saad (2003)

 UPW1 -- UPSTREAM WEIGHTING FLOW PACKAGE, VERSION 1.1.4, 4/01/2018
         INPUT READ FROM UNIT 31

 # UPW package for  MODFLOW-NWT, generated by Flopy.
 No named parameters

   LAYER FLAGS:
 LAYER       LAYTYP          LAYAVG    CHANI           LAYVKA           LAYWET
 ---------------------------------------------------------------------------
    1             1             0     1.000E+00             1             0

   INTERPRETATION OF LAYER FLAGS:
                        INTERBLOCK     HORIZONTAL    DATA IN
         LAYER TYPE   TRANSMISSIVITY   ANISOTROPY   ARRAY VKA   WETTABILITY
 LAYER   (LAYTYP)        (LAYAVG)      (CHANI)     (LAYVKA)       (LAYWET)
 ---------------------------------------------------------------------------
    1   CONVERTIBLE      HARMONIC     1.000E+00    ANISOTROPY  NON-WETTABLE



              HYD. COND. ALONG ROWS FOR LAYER   1
 READING ON UNIT   31 WITH FORMAT: (342E15.6)          

  HORIZ. TO VERTICAL ANI. =   5.00000     FOR LAYER   1



                   SPECIFIC STORAGE FOR LAYER   1
 READING ON UNIT   31 WITH FORMAT: (342E15.6)          



                     SPECIFIC YIELD FOR LAYER   1
 READING ON UNIT   31 WITH FORMAT: (342E15.6)          

 WEL -- WELL PACKAGE FOR NWT VERSION 1.1.4,  4/01/2018 INPUT READ FROM UNIT   20
 # WEL package for  MODFLOW-NWT, generated by Flopy.
 No named parameters
 MAXIMUM OF  17237 ACTIVE WELLS AT ONE TIME
 No named parameters
 
 NEGATIVE PUMPING RATES WILL BE REDUCED IF HEAD 
 FALLS WITHIN THE INTERVAL PHIRAMP TIMES THE CELL 
 THICKNESS. THE VALUE SPECIFIED FOR PHIRAMP IS  0.10000E+00
 WELLS WITH REDUCED PUMPING WILL BE REPORTED TO FILE UNIT NUMBER   50


     0 Well parameters

 DRN -- DRAIN PACKAGE, VERSION 7, 5/2/2005 INPUT READ FROM UNIT   21
 # DRN package for  MODFLOW-NWT, generated by Flopy.
 No named parameters
 MAXIMUM OF  54036 ACTIVE DRAINS AT ONE TIME
 LISTS OF DRAIN CELLS WILL NOT BE PRINTED


     0 Drain parameters

 RCH -- RECHARGE PACKAGE, VERSION 7, 5/2/2005 INPUT READ FROM UNIT   19
 # RCH package for  MODFLOW-NWT, generated by Flopy.
 No named parameters
 OPTION 3 -- RECHARGE TO HIGHEST ACTIVE NODE IN EACH VERTICAL COLUMN


     0 Recharge parameters
1
                            STRESS PERIOD NO.    1, LENGTH =   1.000000    
                            -----------------------------------------------

                              NUMBER OF TIME STEPS =     1

                               MULTIPLIER FOR DELT =     1.000

                            INITIAL TIME STEP SIZE =   1.000000    

 WELL NO.  LAYER   ROW   COL   STRESS RATE         
 --------------------------------------------------
      1      1     29      2      -1.765    
      2      1     30      2      -1.765    
      3      1     31      2      -3.531    
      4      1     29      3      -1.765    
      5      1     30      3      -1.765    
      6      1     31      3      -3.531    
      7      1     29      4      -1.765    
      8      1     30      4      -1.765    
      9      1     32      4      -1.765    
     10      1     33      4      -1.765    
     11      1     34      4      -1.766    
     12      1     35      4      -1.766    
     13      1     43      4      -2.248    
     14      1     44      4      -2.248    
     15      1     45      4      -2.248    
     16      1     46      4      -2.248    
     17      1     29      5      -1.765    
     18      1     30      5      -1.765    
     19      1     32      5      -1.765    
     20      1     33      5      -1.765    
     21      1     34      5      -1.766    
     22      1     35      5      -1.766    
     23      1     43      5      -2.248    
     24      1     44      5      -2.248    
     25      1     45      5      -2.248    
     26      1     46      5      -2.248    
     27      1     29      6      -1.765    
     28      1     30      6      -1.765    
     29      1     32      6      -1.765    
     30      1     33      6      -1.765    
     31      1     34      6      -1.766    
     32      1     35      6      -1.766    
     33      1     36      6      -1.766    
     34      1     37      6      -1.766    
     35      1     40      6      -2.248    
     36      1     41      6      -2.248    
     37      1     42      6      -4.497    
     38      1     45      6      -2.248    
     39      1     46      6      -2.248    
     40      1     29      7      -1.765    
     41      1     30      7      -1.765    
     42      1     32      7      -1.765    
     43      1     33      7      -1.765    
     44      1     34      7      -1.766    
     45      1     35      7      -1.766    
     46      1     36      7      -1.766    
     47      1     37      7      -1.766    
     48      1     40      7      -2.248    
     49      1     41      7      -2.248    
     50      1     42      7      -4.497    
     51      1     45      7      -2.248    
     52      1     46      7      -2.248    
     53      1     27      8      -1.765    
     54      1     28      8      -1.765    
     55      1     29      8      -1.765    
     56      1     30      8      -1.765    
     57      1     32      8      -3.531    
     58      1     33      8      -3.531    
     59      1     34      8      -3.531    
     60      1     35      8      -3.531    
     61      1     36      8      -3.531    
     62      1     37      8      -3.531    
     63      1     40      8      -4.496    
     64      1     41      8      -4.496    
     65      1     42      8      -8.993    
     66      1     43      8     -0.4492    
     67      1     44      8     -0.4492    
     68      1     27      9      -1.765    
     69      1     28      9      -1.765    
     70      1     29      9      -1.765    
     71      1     30      9      -1.765    
     72      1     32      9      -1.765    
     73      1     33      9      -1.765    
     74      1     34      9      -1.766    
     75      1     35      9      -1.766    
     76      1     36      9      -1.766    
     77      1     37      9      -1.766    
     78      1     38      9      -1.766    
     79      1     39      9      -1.766    
     80      1     42      9      -4.497    
     81      1     43      9      -2.248    
     82      1     44      9      -2.248    
     83      1     25     10      -3.530    
     84      1     26     10      -3.530    
     85      1     27     10      -3.530    
     86      1     28     10      -3.530    
     87      1     32     10      -1.765    
     88      1     33     10      -1.765    
     89      1     34     10      -1.766    
     90      1     35     10      -1.766    
     91      1     36     10      -1.766    
     92      1     37     10      -1.766    
     93      1     38     10      -1.766    
     94      1     39     10      -1.766    
     95      1     42     10      -4.497    
     96      1     43     10      -2.248    
     97      1     44     10      -2.248    
     98      1     25     11      -1.765    
     99      1     26     11      -1.765    
    100      1     27     11      -1.765    
    101      1     28     11      -1.765    
    102      1     31     11     -0.3527    
    103      1     32     11      -1.765    
    104      1     33     11      -1.765    
    105      1     34     11      -1.766    
    106      1     35     11      -1.766    
    107      1     40     11      -2.248    
    108      1     41     11      -2.248    
    109      1     43     11      -2.998    
    110      1     44     11      -2.998    
    111      1     45     11      -2.248    
    112      1     46     11      -2.248    
    113      1     25     12      -1.765    
    114      1     26     12      -1.765    
    115      1     27     12      -1.765    
    116      1     28     12      -1.765    
    117      1     31     12     -0.3527    
    118      1     32     12      -1.765    
    119      1     33     12      -1.765    
    120      1     34     12      -1.766    
    121      1     35     12      -1.766    
    122      1     40     12      -2.248    
    123      1     41     12      -2.248    
    124      1     44     12      -2.998    
    125      1     45     12      -2.248    
    126      1     46     12      -2.248    
    127      1     23     13      -5.273    
    128      1     24     13      -5.273    
    129      1     25     13      -5.273    
    130      1     26     13      -5.273    
    131      1     27     13      -5.273    
    132      1     28     13      -5.273    
    133      1     31     13      -10.55    
    134      1     32     13      -5.274    
    135      1     33     13      -5.274    
    136      1     34     13      -5.274    
    137      1     35     13      -5.274    
    138      1     36     13      -5.274    
    139      1     37     13      -5.274    
    140      1     38     13      -5.275    
    141      1     39     13      -5.275    
    142      1     40     13      -2.202    
    143      1     41     13      -2.202    
    144      1     42     13      -2.202    
    145      1     43     13      -2.202    
    146      1     47     13      -2.203    
    147      1     48     13      -2.203    
    148      1     23     14      -5.273    
    149      1     24     14      -5.273    
    150      1     25     14      -5.273    
    151      1     26     14      -5.273    
    152      1     27     14      -5.273    
    153      1     28     14      -5.273    
    154      1     31     14      -10.55    
    155      1     32     14      -5.274    
    156      1     33     14      -5.274    
    157      1     34     14      -5.274    
    158      1     35     14      -5.274    
    159      1     36     14      -5.274    
    160      1     37     14      -5.274    
    161      1     38     14      -5.275    
    162      1     39     14      -5.275    
    163      1     40     14      -2.202    
    164      1     41     14      -2.202    
    165      1     42     14      -2.202    
    166      1     43     14      -2.202    
    167      1     47     14      -2.203    
    168      1     48     14      -2.203    
    169      1     21     15      -5.272    
    170      1     22     15      -5.272    
    171      1     23     15      -5.273    
    172      1     24     15      -5.273    
    173      1     27     15      -5.273    
    174      1     28     15      -5.273    
    175      1     31     15      -10.55    
    176      1     32     15      -5.274    
    177      1     33     15      -5.274    
    178      1     34     15      -5.274    
    179      1     35     15      -5.274    
    180      1     36     15      -5.274    
    181      1     37     15      -5.274    
    182      1     38     15      -10.55    
    183      1     39     15      -10.55    
    184      1     40     15      -4.405    
    185      1     41     15      -4.405    
    186      1     42     15      -4.405    
    187      1     43     15      -4.405    
    188      1     44     15      -8.810    
    189      1     45     15     -0.4317    
    190      1     46     15     -0.4317    
    191      1     47     15      -4.406    
    192      1     48     15      -4.406    
    193      1     51     15      -4.406    
    194      1     52     15      -4.406    
    195      1     21     16      -5.272    
    196      1     22     16      -5.272    
    197      1     23     16      -5.273    
    198      1     24     16      -5.273    
    199      1     27     16      -5.273    
    200      1     28     16      -5.273    
    201      1     31     16      -10.55    
    202      1     32     16      -5.274    
    203      1     33     16      -5.274    
    204      1     34     16      -5.274    
    205      1     35     16      -5.274    
    206      1     36     16      -5.274    
    207      1     37     16      -5.274    
    208      1     38     16      -5.275    
    209      1     39     16      -5.275    
    210      1     44     16     -0.4317    
    211      1     47     16      -2.203    
    212      1     48     16      -2.203    
    213      1     49     16     -0.2159    
    214      1     50     16     -0.2159    
    215      1     51     16     -0.2159    
    216      1     52     16     -0.2159    
    217      1     21     17      -10.54    
    218      1     22     17      -10.54    
    219      1     23     17      -10.55    
    220      1     24     17      -10.55    
    221      1     27     17      -10.55    
    222      1     28     17      -10.55    
    223      1     34     17      -10.55    
    224      1     35     17      -10.55    
    225      1     36     17      -10.55    
    226      1     37     17      -10.55    
    227      1     38     17      -5.275    
    228      1     39     17      -5.275    
    229      1     44     17     -0.4317    
    230      1     47     17      -2.203    
    231      1     48     17      -2.203    
    232      1     49     17     -0.2159    
    233      1     50     17     -0.2159    
    234      1     51     17     -0.2159    
    235      1     52     17     -0.2159    
    236      1     21     18      -5.272    
    237      1     22     18      -5.272    
    238      1     27     18     -0.5236    
    239      1     28     18     -0.5236    
    240      1     31     18      -10.55    
    241      1     32     18      -5.274    
    242      1     33     18      -5.274    
    243      1     34     18      -5.274    
    244      1     35     18      -5.274    
    245      1     36     18      -5.274    
    246      1     37     18      -5.274    
    247      1     38     18      -5.275    
    248      1     39     18      -5.275    
    249      1     42     18      -2.202    
    250      1     43     18      -2.202    
    251      1     47     18      -2.203    
    252      1     48     18      -2.203    
    253      1     49     18      -2.203    
    254      1     50     18      -2.203    
    255      1     21     19      -5.272    
    256      1     22     19      -5.272    
    257      1     27     19     -0.5236    
    258      1     28     19     -0.5236    
    259      1     31     19      -10.55    
    260      1     32     19      -5.274    
    261      1     33     19      -5.274    
    262      1     34     19      -5.274    
    263      1     35     19      -5.274    
    264      1     36     19      -5.274    
    265      1     37     19      -5.274    
    266      1     38     19      -5.275    
    267      1     39     19      -5.275    
    268      1     42     19      -2.202    
    269      1     43     19      -2.202    
    270      1     47     19      -2.203    
    271      1     48     19      -2.203    
    272      1     49     19      -2.203    
    273      1     50     19      -2.203    
    274      1     21     20      -5.272    
    275      1     22     20      -5.272    
    276      1     23     20      -5.273    
    277      1     24     20      -5.273    
    278      1     29     20     -0.5236    
    279      1     30     20     -0.5236    
    280      1     31     20      -7.031    
    281      1     32     20      -7.032    
    282      1     33     20      -7.032    
    283      1     34     20      -5.274    
    284      1     35     20      -5.274    
    285      1     36     20      -5.274    
    286      1     37     20      -5.274    
    287      1     38     20      -5.275    
    288      1     39     20      -5.275    
    289      1     40     20      -2.202    
    290      1     41     20      -2.202    
    291      1     47     20      -2.203    
    292      1     48     20      -2.203    
    293      1     49     20      -2.203    
    294      1     50     20      -2.203    
    295      1     53     20      -2.203    
    296      1     54     20      -2.203    
    297      1     73     20      -3.400    
    298      1     74     20      -3.400    
    299      1     21     21      -5.272    
    300      1     22     21      -5.272    
    301      1     23     21      -5.273    
    302      1     24     21      -5.273    
    303      1     29     21     -0.5236    
    304      1     30     21     -0.5236    
    305      1     31     21      -7.031    
    306      1     32     21      -7.031    
    307      1     33     21      -7.032    
    308      1     34     21      -5.274    
    309      1     35     21      -5.274    
    310      1     36     21      -5.274    
    311      1     37     21      -5.274    
    312      1     38     21      -5.275    
    313      1     39     21      -5.275    
    314      1     40     21      -2.202    
    315      1     41     21      -2.202    
    316      1     47     21      -2.203    
    317      1     48     21      -2.203    
    318      1     49     21      -2.203    
    319      1     50     21      -2.203    
    320      1     53     21      -2.203    
    321      1     54     21      -2.203    
    322      1     73     21      -3.400    
    323      1     74     21      -3.400    
    324      1     76     21      -4.534    
    325      1     77     21      -1.155    
    326      1     78     21      -1.155    
    327      1     79     21      -2.310    
    328      1     21     22      -5.272    
    329      1     22     22      -5.272    
    330      1     23     22      -5.273    
    331      1     24     22      -5.273    
    332      1     29     22      -5.273    
    333      1     30     22      -5.273    
    334      1     31     22      -5.274    
    335      1     32     22      -5.274    
    336      1     33     22      -10.55    
    337      1     34     22      -5.274    
    338      1     35     22      -5.274    
    339      1     38     22      -5.275    
    340      1     39     22      -5.275    
    341      1     40     22      -2.202    
    342      1     41     22      -2.202    
    343      1     44     22      -8.810    
    344      1     45     22     -0.4317    
    345      1     46     22     -0.4317    
    346      1     47     22      -4.406    
    347      1     48     22      -4.406    
    348      1     49     22      -4.406    
    349      1     50     22      -4.406    
    350      1     53     22      -4.406    
    351      1     54     22      -4.406    
    352      1     71     22      -6.800    
    353      1     72     22      -6.800    
    354      1     75     22      -4.534    
    355      1     76     22      -4.534    
    356      1     77     22      -1.155    
    357      1     78     22      -1.155    
    358      1     79     22      -2.310    
    359      1     21     23      -5.272    
    360      1     22     23      -5.272    
    361      1     23     23      -5.273    
    362      1     24     23      -5.273    
    363      1     29     23      -5.273    
    364      1     30     23      -5.273    
    365      1     31     23      -5.274    
    366      1     32     23      -5.274    
    367      1     33     23      -10.55    
    368      1     34     23      -5.274    
    369      1     35     23      -5.274    
    370      1     38     23      -5.275    
    371      1     39     23      -5.275    
    372      1     40     23      -2.202    
    373      1     41     23      -2.202    
    374      1     47     23      -2.203    
    375      1     48     23      -2.203    
    376      1     49     23      -2.203    
    377      1     50     23      -2.203    
    378      1     51     23      -2.203    
    379      1     52     23      -2.203    
    380      1     71     23      -3.400    
    381      1     72     23      -3.400    
    382      1     75     23      -3.400    
    383      1     76     23      -3.400    
    384      1     77     23      -1.155    
    385      1     78     23      -1.155    
    386      1     79     23     -0.2310    
    387      1     80     23      -1.155    
    388      1     81     23      -1.155    
    389      1     82     23      -1.155    
    390      1     83     23      -1.155    
    391      1     21     24      -10.54    
    392      1     22     24      -10.54    
    393      1     23     24      -10.55    
    394      1     24     24      -10.55    
    395      1     25     24      -10.55    
    396      1     26     24      -10.55    
    397      1     31     24      -10.55    
    398      1     32     24      -10.55    
    399      1     33     24      -21.10    
    400      1     34     24      -10.55    
    401      1     35     24      -10.55    
    402      1     38     24      -10.55    
    403      1     39     24      -10.55    
    404      1     40     24      -4.405    
    405      1     41     24      -4.405    
    406      1     42     24      -4.405    
    407      1     43     24      -4.405    
    408      1     47     24      -2.203    
    409      1     48     24      -2.203    
    410      1     49     24      -2.203    
    411      1     50     24      -2.203    
    412      1     51     24      -2.203    
    413      1     52     24      -2.203    
    414      1     71     24      -3.400    
    415      1     72     24      -3.400    
    416      1     75     24      -3.400    
    417      1     76     24      -3.400    
    418      1     77     24      -1.155    
    419      1     78     24      -1.155    
    420      1     79     24     -0.2310    
    421      1     80     24      -1.155    
    422      1     81     24      -1.155    
    423      1     82     24      -1.155    
    424      1     83     24      -1.155    
    425      1     21     25      -5.272    
    426      1     22     25      -5.272    
    427      1     23     25      -5.273    
    428      1     24     25      -5.273    
    429      1     25     25      -5.273    
    430      1     26     25      -5.273    
    431      1     31     25      -5.274    
    432      1     32     25      -5.274    
    433      1     33     25      -10.55    
    434      1     34     25      -5.274    
    435      1     35     25      -5.274    
    436      1     36     25      -5.274    
    437      1     37     25      -5.274    
    438      1     38     25     -0.5238    
    439      1     39     25     -0.5238    
    440      1     40     25      -2.202    
    441      1     41     25      -2.202    
    442      1     42     25      -2.202    
    443      1     43     25      -2.202    
    444      1     44     25      -4.405    
    445      1     49     25      -2.203    
    446      1     50     25      -2.203    
    447      1     51     25      -2.203    
    448      1     52     25      -2.203    
    449      1     55     25      -2.203    
    450      1     56     25      -2.203    
    451      1     69     25      -3.400    
    452      1     70     25      -3.400    
    453      1     71     25      -3.400    
    454      1     72     25      -3.400    
    455      1     75     25      -3.400    
    456      1     76     25      -3.400    
    457      1     79     25     -0.1540    
    458      1     80     25      -1.540    
    459      1     81     25      -1.540    
    460      1     21     26      -5.272    
    461      1     22     26      -5.272    
    462      1     23     26      -5.273    
    463      1     24     26      -5.273    
    464      1     25     26      -5.273    
    465      1     26     26      -5.273    
    466      1     31     26      -5.274    
    467      1     32     26      -5.274    
    468      1     33     26      -10.55    
    469      1     34     26      -5.274    
    470      1     35     26      -5.274    
    471      1     36     26      -5.274    
    472      1     37     26      -5.274    
    473      1     38     26     -0.5238    
    474      1     39     26     -0.5238    
    475      1     40     26      -2.202    
    476      1     41     26      -2.202    
    477      1     42     26      -2.202    
    478      1     43     26      -2.202    
    479      1     44     26      -4.405    
    480      1     49     26      -2.203    
    481      1     50     26      -2.203    
    482      1     51     26      -2.203    
    483      1     52     26      -2.203    
    484      1     55     26      -2.203    
    485      1     56     26      -2.203    
    486      1     69     26      -3.400    
    487      1     70     26      -3.400    
    488      1     71     26      -3.400    
    489      1     72     26      -3.400    
    490      1     75     26      -3.400    
    491      1     76     26      -3.400    
    492      1     79     26     -0.1540    
    493      1     80     26     -0.1540    
    494      1     81     26      -1.540    
    495      1     20     27      -14.50    
    496      1     21     27      -5.272    
    497      1     22     27      -5.272    
    498      1     25     27      -5.273    
    499      1     26     27      -5.273    
    500      1     29     27      -5.273    
    501      1     30     27      -5.273    
    502      1     31     27      -5.274    
    503      1     32     27      -5.274    
    504      1     33     27      -10.55    
    505      1     34     27      -5.274    
    506      1     35     27      -5.274    
    507      1     36     27      -5.274    
    508      1     37     27      -5.274    
    509      1     40     27      -2.202    
    510      1     41     27      -2.202    
    511      1     42     27      -2.202    
    512      1     43     27      -2.202    
    513      1     45     27      -2.203    
    514      1     46     27      -2.203    
    515      1     47     27      -2.203    
    516      1     48     27      -2.203    
    517      1     51     27     -0.2159    
    518      1     52     27     -0.2159    
    519      1     53     27     -0.2159    
    520      1     54     27     -0.2159    
    521      1     55     27      -2.203    
    522      1     56     27      -2.203    
    523      1     66     27      -3.399    
    524      1     67     27      -3.399    
    525      1     68     27      -6.799    
    526      1     71     27      -3.400    
    527      1     72     27      -3.400    
    528      1     75     27      -3.400    
    529      1     76     27      -3.400    
    530      1     81     27      -2.310    
    531      1     82     27      -1.155    
    532      1     83     27      -1.155    
    533      1     84     27      -2.310    
    534      1     85     27      -2.310    
    535      1     20     28      -14.50    
    536      1     21     28      -5.272    
    537      1     22     28      -5.272    
    538      1     25     28      -5.273    
    539      1     26     28      -5.273    
    540      1     29     28      -5.273    
    541      1     30     28      -5.273    
    542      1     31     28      -5.274    
    543      1     32     28      -5.274    
    544      1     33     28      -10.55    
    545      1     34     28      -5.274    
    546      1     35     28      -5.274    
    547      1     36     28      -5.274    
    548      1     37     28      -5.274    
    549      1     40     28      -2.202    
    550      1     41     28      -2.202    
    551      1     42     28      -2.202    
    552      1     43     28      -2.202    
    553      1     45     28      -2.203    
    554      1     46     28      -2.203    
    555      1     47     28      -2.203    
    556      1     48     28      -2.203    
    557      1     51     28     -0.2159    
    558      1     52     28     -0.2159    
    559      1     53     28     -0.2159    
    560      1     54     28     -0.2159    
    561      1     55     28      -2.203    
    562      1     56     28      -2.203    
    563      1     66     28      -3.399    
    564      1     67     28      -3.399    
    565      1     68     28      -6.799    
    566      1     71     28      -3.400    
    567      1     72     28      -3.400    
    568      1     75     28      -3.400    
    569      1     76     28      -3.400    
    570      1     81     28      -2.310    
    571      1     82     28      -1.155    
    572      1     83     28      -1.155    
    573      1     84     28      -1.155    
    574      1     85     28      -1.155    
    575      1     86     28      -1.155    
    576      1     87     28      -1.155    
    577      1     20     29      -9.665    
    578      1     21     29      -7.030    
    579      1     22     29      -7.030    
    580      1     29     29      -5.273    
    581      1     30     29      -5.273    
    582      1     31     29      -5.274    
    583      1     32     29      -5.274    
    584      1     33     29      -10.55    
    585      1     38     29      -5.275    
    586      1     39     29      -5.275    
    587      1     40     29      -2.202    
    588      1     41     29      -2.202    
    589      1     42     29      -2.202    
    590      1     43     29      -2.202    
    591      1     44     29      -4.405    
    592      1     45     29      -2.203    
    593      1     46     29      -2.203    
    594      1     47     29      -2.203    
    595      1     48     29      -2.203    
    596      1     49     29     -0.2159    
    597      1     50     29     -0.2159    
    598      1     51     29     -0.4318    
    599      1     52     29     -0.4318    
    600      1     55     29     -0.4318    
    601      1     56     29     -0.4318    
    602      1     66     29      -6.799    
    603      1     67     29      -6.799    
    604      1     68     29      -13.60    
    605      1     77     29      -2.310    
    606      1     78     29      -2.310    
    607      1     79     29      -2.310    
    608      1     80     29      -2.310    
    609      1     81     29      -4.620    
    610      1     82     29      -2.310    
    611      1     83     29      -2.310    
    612      1     84     29      -1.155    
    613      1     85     29      -1.155    
    614      1     86     29      -1.155    
    615      1     87     29      -1.155    
    616      1     20     30      -9.665    
    617      1     21     30      -9.665    
    618      1     22     30      -7.030    
    619      1     29     30      -5.273    
    620      1     30     30      -5.273    
    621      1     31     30      -5.274    
    622      1     32     30      -5.274    
    623      1     33     30      -10.55    
    624      1     38     30      -5.275    
    625      1     39     30      -5.275    
    626      1     40     30      -2.202    
    627      1     41     30      -2.202    
    628      1     42     30      -2.202    
    629      1     43     30      -2.202    
    630      1     44     30      -4.405    
    631      1     45     30      -2.203    
    632      1     46     30      -2.203    
    633      1     47     30      -2.203    
    634      1     48     30      -2.203    
    635      1     49     30     -0.2159    
    636      1     50     30     -0.2159    
    637      1     53     30     -0.2286    
    638      1     54     30     -0.2286    
    639      1     66     30      -4.195    
    640      1     67     30      -4.195    
    641      1     68     30      -8.390    
    642      1     69     30      -4.195    
    643      1     70     30      -4.195    
    644      1     75     30      -4.196    
    645      1     76     30      -4.196    
    646      1     77     30      -3.376    
    647      1     78     30      -3.376    
    648      1     79     30      -3.377    
    649      1     80     30      -3.377    
    650      1     81     30      -6.753    
    651      1     82     30      -3.377    
    652      1     83     30      -3.377    
    653      1     84     30      -3.377    
    654      1     85     30      -3.377    
    655      1     86     30      -3.377    
    656      1     87     30      -3.377    
    657      1     20     31      -17.55    
    658      1     21     31      -17.55    
    659      1     22     31      -26.84    
    660      1     25     31      -13.42    
    661      1     26     31      -13.42    
    662      1     27     31      -13.42    
    663      1     28     31      -13.42    
    664      1     31     31      -13.42    
    665      1     32     31      -13.42    
    666      1     33     31      -26.85    
    667      1     38     31      -13.43    
    668      1     39     31      -13.43    
    669      1     40     31      -5.061    
    670      1     41     31      -5.061    
    671      1     42     31      -5.062    
    672      1     43     31      -5.062    
    673      1     44     31      -10.12    
    674      1     45     31      -5.062    
    675      1     46     31      -5.062    
    676      1     47     31      -5.062    
    677      1     48     31      -5.062    
    678      1     49     31      -5.063    
    679      1     50     31      -5.063    
    680      1     53     31     -0.2286    
    681      1     54     31     -0.2286    
    682      1     66     31      -4.195    
    683      1     67     31      -4.195    
    684      1     68     31      -8.390    
    685      1     69     31      -4.195    
    686      1     70     31      -4.195    
    687      1     75     31      -4.196    
    688      1     76     31      -4.196    
    689      1     77     31      -3.376    
    690      1     78     31      -3.376    
    691      1     79     31      -3.377    
    692      1     80     31      -3.377    
    693      1     81     31      -6.753    
    694      1     82     31      -3.377    
    695      1     83     31      -3.377    
    696      1     84     31      -3.377    
    697      1     85     31      -3.377    
    698      1     86     31      -3.377    
    699      1     87     31      -3.377    
    700      1     22     32      -13.42    
    701      1     23     32      -6.710    
    702      1     24     32      -6.710    
    703      1     25     32      -6.710    
    704      1     26     32      -6.710    
    705      1     31     32      -6.711    
    706      1     32     32      -6.711    
    707      1     33     32      -13.42    
    708      1     36     32      -6.712    
    709      1     37     32      -6.712    
    710      1     38     32      -6.713    
    711      1     39     32      -6.713    
    712      1     40     32      -2.531    
    713      1     41     32      -2.531    
    714      1     42     32      -2.531    
    715      1     43     32      -2.531    
    716      1     44     32      -3.375    
    717      1     45     32      -3.375    
    718      1     46     32      -3.375    
    719      1     47     32      -2.531    
    720      1     48     32      -2.531    
    721      1     49     32      -2.531    
    722      1     50     32      -2.531    
    723      1     55     32     -0.2286    
    724      1     56     32     -0.2286    
    725      1     57     32      -5.064    
    726      1     66     32      -4.195    
    727      1     67     32      -4.195    
    728      1     68     32      -8.390    
    729      1     69     32      -4.195    
    730      1     70     32      -4.195    
    731      1     75     32      -4.196    
    732      1     76     32      -4.196    
    733      1     77     32      -3.376    
    734      1     78     32      -3.376    
    735      1     79     32     -0.3309    
    736      1     80     32     -0.3309    
    737      1     81     32      -6.753    
    738      1     82     32      -3.377    
    739      1     83     32      -3.377    
    740      1     84     32      -3.377    
    741      1     85     32      -3.377    
    742      1     86     32      -3.377    
    743      1     87     32      -3.377    
    744      1     22     33      -13.42    
    745      1     23     33      -6.710    
    746      1     24     33      -6.710    
    747      1     25     33      -6.710    
    748      1     26     33      -6.710    
    749      1     31     33      -6.711    
    750      1     32     33      -6.711    
    751      1     33     33      -13.42    
    752      1     36     33      -6.712    
    753      1     37     33      -6.712    
    754      1     38     33      -6.713    
    755      1     39     33      -6.713    
    756      1     40     33      -2.531    
    757      1     41     33      -2.531    
    758      1     42     33      -2.531    
    759      1     43     33      -2.531    
    760      1     44     33      -3.375    
    761      1     45     33      -3.375    
    762      1     46     33      -3.375    
    763      1     47     33      -2.531    
    764      1     48     33      -2.531    
    765      1     49     33      -2.531    
    766      1     50     33      -2.531    
    767      1     55     33     -0.2286    
    768      1     56     33     -0.2286    
    769      1     57     33      -5.064    
    770      1     66     33      -4.195    
    771      1     67     33      -4.195    
    772      1     68     33      -8.390    
    773      1     69     33      -4.195    
    774      1     70     33      -4.195    
    775      1     75     33      -4.196    
    776      1     76     33      -4.196    
    777      1     77     33      -3.376    
    778      1     78     33      -3.376    
    779      1     79     33     -0.3309    
    780      1     80     33     -0.3309    
    781      1     81     33      -6.753    
    782      1     82     33      -3.377    
    783      1     83     33      -3.377    
    784      1     84     33      -3.377    
    785      1     85     33      -3.377    
    786      1     86     33      -3.377    
    787      1     87     33      -3.377    
    788      1     23     34      -6.710    
    789      1     24     34      -6.710    
    790      1     25     34      -6.710    
    791      1     26     34      -6.710    
    792      1     27     34      -6.711    
    793      1     28     34      -6.711    
    794      1     31     34      -6.711    
    795      1     32     34      -6.711    
    796      1     33     34      -13.42    
    797      1     36     34      -6.712    
    798      1     37     34      -6.712    
    799      1     38     34      -6.713    
    800      1     39     34      -6.713    
    801      1     40     34      -2.531    
    802      1     41     34      -2.531    
    803      1     42     34      -2.531    
    804      1     43     34      -2.531    
    805      1     44     34      -2.531    
    806      1     45     34      -2.531    
    807      1     49     34      -2.531    
    808      1     50     34      -2.531    
    809      1     51     34     -0.2286    
    810      1     52     34     -0.2286    
    811      1     53     34     -0.2286    
    812      1     54     34     -0.2286    
    813      1     57     34     -0.4572    
    814      1     62     34      -4.194    
    815      1     63     34      -4.194    
    816      1     64     34      -4.194    
    817      1     65     34      -4.194    
    818      1     66     34      -4.195    
    819      1     67     34      -4.195    
    820      1     68     34      -8.390    
    821      1     69     34      -4.195    
    822      1     70     34      -4.195    
    823      1     71     34     -0.4178    
    824      1     72     34     -0.4178    
    825      1     75     34      -4.196    
    826      1     76     34      -4.196    
    827      1     79     34      -3.377    
    828      1     80     34      -3.377    
    829      1     81     34      -6.753    
    830      1     82     34      -3.377    
    831      1     83     34      -3.377    
    832      1     84     34      -3.377    
    833      1     85     34      -3.377    
    834      1     23     35      -6.710    
    835      1     24     35      -6.710    
    836      1     25     35      -6.710    
    837      1     26     35      -6.710    
    838      1     27     35      -6.711    
    839      1     28     35      -6.711    
    840      1     31     35      -6.711    
    841      1     32     35      -6.711    
    842      1     33     35      -13.42    
    843      1     36     35      -6.712    
    844      1     37     35      -6.712    
    845      1     38     35      -6.713    
    846      1     39     35      -6.713    
    847      1     40     35      -2.531    
    848      1     41     35      -2.531    
    849      1     42     35      -2.531    
    850      1     43     35      -2.531    
    851      1     44     35      -2.531    
    852      1     45     35      -2.531    
    853      1     49     35      -2.531    
    854      1     50     35      -2.531    
    855      1     51     35     -0.2286    
    856      1     52     35     -0.2286    
    857      1     53     35     -0.2286    
    858      1     54     35     -0.2286    
    859      1     57     35     -0.4572    
    860      1     62     35      -4.194    
    861      1     63     35      -4.194    
    862      1     64     35      -4.194    
    863      1     65     35      -4.194    
    864      1     66     35      -4.195    
    865      1     67     35      -4.195    
    866      1     68     35      -8.390    
    867      1     69     35      -4.195    
    868      1     70     35      -4.195    
    869      1     71     35     -0.4178    
    870      1     72     35     -0.4178    
    871      1     75     35      -4.196    
    872      1     76     35      -4.196    
    873      1     79     35      -3.377    
    874      1     80     35      -3.377    
    875      1     81     35      -6.753    
    876      1     82     35      -3.377    
    877      1     83     35      -3.377    
    878      1     84     35      -3.377    
    879      1     85     35      -3.377    
    880      1     23     36      -6.710    
    881      1     24     36      -6.710    
    882      1     25     36      -6.710    
    883      1     26     36      -6.710    
    884      1     27     36      -6.711    
    885      1     28     36      -6.711    
    886      1     31     36      -6.711    
    887      1     32     36      -6.711    
    888      1     33     36      -13.42    
    889      1     36     36      -6.712    
    890      1     37     36      -6.712    
    891      1     38     36      -6.713    
    892      1     39     36      -6.713    
    893      1     40     36      -2.531    
    894      1     41     36      -2.531    
    895      1     42     36      -2.531    
    896      1     43     36      -2.531    
    897      1     44     36      -2.531    
    898      1     45     36      -2.531    
    899      1     46     36      -5.062    
    900      1     49     36      -2.531    
    901      1     50     36      -2.531    
    902      1     53     36     -0.2286    
    903      1     54     36     -0.2286    
    904      1     55     36      -2.532    
    905      1     56     36      -2.532    
    906      1     57     36      -5.064    
    907      1     58     36      -8.388    
    908      1     59     36      -8.388    
    909      1     60     36      -8.388    
    910      1     61     36      -8.388    
    911      1     62     36      -8.388    
    912      1     63     36      -8.388    
    913      1     64     36      -8.389    
    914      1     65     36      -8.389    
    915      1     66     36      -8.389    
    916      1     67     36      -8.389    
    917      1     68     36      -8.390    
    918      1     69     36      -8.390    
    919      1     71     36      -8.390    
    920      1     72     36      -8.390    
    921      1     75     36      -8.391    
    922      1     76     36      -8.391    
    923      1     77     36     -0.6618    
    924      1     78     36     -0.6618    
    925      1     79     36      -6.753    
    926      1     80     36      -6.753    
    927      1     81     36      -13.51    
    928      1     82     36      -6.754    
    929      1     83     36      -6.754    
    930      1     23     37      -6.710    
    931      1     24     37      -6.710    
    932      1     25     37      -6.710    
    933      1     26     37      -6.710    
    934      1     27     37      -6.711    
    935      1     28     37      -6.711    
    936      1     31     37      -6.711    
    937      1     32     37      -6.711    
    938      1     33     37      -13.42    
    939      1     36     37      -6.712    
    940      1     37     37      -6.712    
    941      1     38     37      -6.713    
    942      1     39     37      -6.713    
    943      1     40     37      -2.531    
    944      1     41     37      -2.531    
    945      1     42     37      -2.531    
    946      1     43     37      -2.531    
    947      1     44     37      -2.531    
    948      1     45     37      -2.531    
    949      1     46     37      -5.062    
    950      1     49     37      -2.531    
    951      1     50     37      -2.531    
    952      1     53     37     -0.2286    
    953      1     54     37     -0.2286    
    954      1     55     37      -2.532    
    955      1     56     37      -2.532    
    956      1     57     37      -5.064    
    957      1     58     37      -4.194    
    958      1     59     37      -4.194    
    959      1     60     37      -4.194    
    960      1     61     37      -4.194    
    961      1     62     37      -4.194    
    962      1     63     37      -4.194    
    963      1     68     37      -4.195    
    964      1     69     37      -4.195    
    965      1     70     37      -8.390    
    966      1     71     37      -4.195    
    967      1     72     37      -4.195    
    968      1     77     37      -3.376    
    969      1     78     37      -3.376    
    970      1     79     37      -3.377    
    971      1     80     37      -3.377    
    972      1     81     37      -6.753    
    973      1     82     37      -3.377    
    974      1     83     37      -3.377    
    975      1     23     38      -6.710    
    976      1     24     38      -6.710    
    977      1     25     38      -13.42    
    978      1     26     38      -13.42    
    979      1     27     38      -13.42    
    980      1     28     38      -13.42    
    981      1     31     38      -1.328    
    982      1     32     38      -1.328    
    983      1     33     38      -26.85    
    984      1     36     38      -13.42    
    985      1     37     38      -13.42    
    986      1     40     38      -5.061    
    987      1     41     38      -5.061    
    988      1     42     38      -5.062    
    989      1     43     38      -5.062    
    990      1     44     38      -5.062    
    991      1     45     38      -5.062    
    992      1     49     38     -0.4572    
    993      1     50     38     -0.4572    
    994      1     53     38      -5.063    
    995      1     54     38      -5.063    
    996      1     55     38      -5.063    
    997      1     56     38      -5.063    
    998      1     57     38      -10.13    
    999      1     58     38      -4.194    
   1000      1     59     38      -4.194    
   1001      1     60     38      -4.194    
   1002      1     61     38      -4.194    
   1003      1     62     38      -4.194    
   1004      1     63     38      -4.194    
   1005      1     68     38      -4.195    
   1006      1     69     38      -4.195    
   1007      1     70     38      -8.390    
   1008      1     71     38      -4.195    
   1009      1     72     38      -4.195    
   1010      1     77     38      -3.376    
   1011      1     78     38      -3.376    
   1012      1     79     38      -3.377    
   1013      1     80     38      -3.377    
   1014      1     81     38      -6.753    
   1015      1     82     38      -3.377    
   1016      1     83     38      -3.377    
   1017      1     23     39      -6.710    
   1018      1     24     39      -6.710    
   1019      1     25     39      -6.710    
   1020      1     26     39      -6.710    
   1021      1     27     39      -6.711    
   1022      1     28     39      -6.711    
   1023      1     33     39      -13.42    
   1024      1     36     39     -0.6638    
   1025      1     37     39     -0.6638    
   1026      1     40     39      -2.531    
   1027      1     41     39      -2.531    
   1028      1     42     39      -2.531    
   1029      1     43     39      -2.531    
   1030      1     44     39      -2.531    
   1031      1     45     39      -2.531    
   1032      1     46     39      -5.062    
   1033      1     47     39     -0.2286    
   1034      1     48     39     -0.2286    
   1035      1     51     39     -0.2286    
   1036      1     52     39     -0.2286    
   1037      1     57     39      -5.064    
   1038      1     58     39      -4.194    
   1039      1     59     39      -4.194    
   1040      1     60     39      -4.194    
   1041      1     61     39      -4.194    
   1042      1     62     39      -4.194    
   1043      1     63     39      -4.194    
   1044      1     64     39      -4.194    
   1045      1     65     39      -4.194    
   1046      1     70     39      -8.390    
   1047      1     71     39      -4.195    
   1048      1     72     39      -4.195    
   1049      1     75     39      -4.196    
   1050      1     76     39      -4.196    
   1051      1     79     39      -3.377    
   1052      1     80     39      -3.377    
   1053      1     81     39      -6.753    
   1054      1     82     39      -3.377    
   1055      1     83     39      -3.377    
   1056      1     23     40      -13.42    
   1057      1     24     40      -13.42    
   1058      1     25     40      -6.710    
   1059      1     26     40      -6.710    
   1060      1     27     40      -6.711    
   1061      1     28     40      -6.711    
   1062      1     33     40      -13.42    
   1063      1     36     40     -0.6638    
   1064      1     37     40     -0.6638    
   1065      1     40     40      -2.531    
   1066      1     41     40      -2.531    
   1067      1     42     40      -2.531    
   1068      1     43     40      -2.531    
   1069      1     44     40      -2.531    
   1070      1     45     40      -2.531    
   1071      1     46     40      -5.062    
   1072      1     47     40     -0.2286    
   1073      1     48     40     -0.2286    
   1074      1     51     40     -0.2286    
   1075      1     52     40     -0.2286    
   1076      1     57     40      -5.064    
   1077      1     58     40      -4.194    
   1078      1     59     40      -4.194    
   1079      1     60     40      -4.194    
   1080      1     61     40      -4.194    
   1081      1     62     40      -4.194    
   1082      1     63     40      -4.194    
   1083      1     64     40      -4.194    
   1084      1     65     40      -4.194    
   1085      1     70     40      -8.390    
   1086      1     71     40      -4.195    
   1087      1     72     40      -4.195    
   1088      1     75     40      -4.196    
   1089      1     76     40      -4.196    
   1090      1     79     40      -3.377    
   1091      1     80     40      -3.377    
   1092      1     81     40      -6.753    
   1093      1     82     40      -3.377    
   1094      1     83     40      -3.377    
   1095      1     23     41      -6.710    
   1096      1     24     41      -6.710    
   1097      1     29     41     -0.6637    
   1098      1     30     41     -0.6637    
   1099      1     33     41     -0.8850    
   1100      1     36     41      -6.712    
   1101      1     37     41      -6.712    
   1102      1     38     41      -6.713    
   1103      1     39     41      -6.713    
   1104      1     40     41      -2.531    
   1105      1     41     41      -2.531    
   1106      1     42     41      -2.531    
   1107      1     43     41      -2.531    
   1108      1     44     41      -2.531    
   1109      1     45     41      -2.531    
   1110      1     46     41      -5.062    
   1111      1     49     41     -0.2286    
   1112      1     50     41     -0.2286    
   1113      1     51     41      -2.531    
   1114      1     52     41      -2.531    
   1115      1     55     41      -2.532    
   1116      1     56     41      -2.532    
   1117      1     57     41      -5.064    
   1118      1     58     41      -4.194    
   1119      1     59     41      -4.194    
   1120      1     60     41      -4.194    
   1121      1     61     41      -4.194    
   1122      1     62     41      -4.194    
   1123      1     63     41      -4.194    
   1124      1     64     41      -4.194    
   1125      1     65     41      -4.194    
   1126      1     70     41      -8.390    
   1127      1     71     41      -4.195    
   1128      1     72     41      -4.195    
   1129      1     75     41     -0.4179    
   1130      1     76     41     -0.4179    
   1131      1     77     41      -3.376    
   1132      1     78     41      -3.376    
   1133      1     79     41      -3.377    
   1134      1     80     41      -3.377    
   1135      1     81     41      -6.753    
   1136      1     82     41      -3.377    
   1137      1     83     41      -3.377    
   1138      1     23     42      -6.710    
   1139      1     24     42      -6.710    
   1140      1     29     42     -0.6637    
   1141      1     30     42     -0.6637    
   1142      1     33     42     -0.8850    
   1143      1     34     42     -0.8850    
   1144      1     36     42      -6.712    
   1145      1     37     42      -6.712    
   1146      1     38     42      -6.713    
   1147      1     39     42      -6.713    
   1148      1     40     42      -2.531    
   1149      1     41     42      -2.531    
   1150      1     42     42      -2.531    
   1151      1     43     42      -2.531    
   1152      1     44     42      -2.531    
   1153      1     45     42      -2.531    
   1154      1     46     42      -5.062    
   1155      1     49     42     -0.2286    
   1156      1     50     42     -0.2286    
   1157      1     51     42      -2.531    
   1158      1     52     42      -2.531    
   1159      1     55     42      -2.532    
   1160      1     56     42      -2.532    
   1161      1     57     42      -5.064    
   1162      1     58     42      -4.194    
   1163      1     59     42      -4.194    
   1164      1     60     42      -4.194    
   1165      1     61     42      -4.194    
   1166      1     62     42      -4.194    
   1167      1     63     42      -4.194    
   1168      1     64     42      -4.194    
   1169      1     65     42      -4.194    
   1170      1     70     42      -8.390    
   1171      1     71     42      -4.195    
   1172      1     72     42      -4.195    
   1173      1     75     42     -0.4179    
   1174      1     76     42     -0.4179    
   1175      1     77     42      -3.376    
   1176      1     78     42      -3.376    
   1177      1     79     42      -3.377    
   1178      1     80     42      -3.377    
   1179      1     81     42      -6.753    
   1180      1     82     42      -3.377    
   1181      1     83     42      -3.377    
   1182      1     22     43      -13.42    
   1183      1     23     43      -6.710    
   1184      1     24     43      -6.710    
   1185      1     25     43      -6.710    
   1186      1     26     43      -6.710    
   1187      1     27     43      -6.711    
   1188      1     28     43      -6.711    
   1189      1     29     43      -6.711    
   1190      1     30     43      -6.711    
   1191      1     31     43      -6.711    
   1192      1     32     43      -6.711    
   1193      1     36     43      -6.712    
   1194      1     37     43      -6.712    
   1195      1     38     43      -6.713    
   1196      1     39     43      -6.713    
   1197      1     40     43      -2.531    
   1198      1     41     43      -2.531    
   1199      1     42     43      -2.531    
   1200      1     43     43      -2.531    
   1201      1     44     43      -2.531    
   1202      1     45     43      -2.531    
   1203      1     46     43     -0.4571    
   1204      1     49     43      -2.531    
   1205      1     50     43      -2.531    
   1206      1     55     43      -2.532    
   1207      1     56     43      -2.532    
   1208      1     57     43      -5.064    
   1209      1     58     43      -4.194    
   1210      1     59     43      -4.194    
   1211      1     60     43      -4.194    
   1212      1     61     43      -4.194    
   1213      1     62     43      -4.194    
   1214      1     63     43      -4.194    
   1215      1     64     43      -4.194    
   1216      1     65     43      -4.194    
   1217      1     66     43      -8.389    
   1218      1     67     43      -8.389    
   1219      1     68     43      -8.390    
   1220      1     69     43      -8.390    
   1221      1     70     43      -1.671    
   1222      1     71     43     -0.8357    
   1223      1     72     43     -0.8357    
   1224      1     75     43      -8.391    
   1225      1     76     43      -8.391    
   1226      1     77     43     -0.6618    
   1227      1     78     43     -0.6618    
   1228      1     79     43     -0.6618    
   1229      1     80     43     -0.6618    
   1230      1     82     43      -6.754    
   1231      1     83     43      -6.754    
   1232      1     84     43      -6.754    
   1233      1     85     43      -6.754    
   1234      1     22     44      -13.42    
   1235      1     23     44      -6.710    
   1236      1     24     44      -6.710    
   1237      1     25     44      -6.710    
   1238      1     26     44      -6.710    
   1239      1     27     44      -6.711    
   1240      1     28     44      -6.711    
   1241      1     29     44      -6.711    
   1242      1     30     44      -6.711    
   1243      1     31     44      -6.711    
   1244      1     32     44      -6.711    
   1245      1     36     44      -6.712    
   1246      1     37     44      -6.712    
   1247      1     38     44      -6.713    
   1248      1     39     44      -6.713    
   1249      1     40     44      -2.531    
   1250      1     41     44      -2.531    
   1251      1     42     44      -2.531    
   1252      1     43     44      -2.531    
   1253      1     44     44      -2.531    
   1254      1     45     44      -2.531    
   1255      1     46     44     -0.4571    
   1256      1     49     44      -2.531    
   1257      1     50     44      -2.531    
   1258      1     55     44      -2.532    
   1259      1     56     44      -2.532    
   1260      1     57     44      -5.064    
   1261      1     58     44      -4.194    
   1262      1     59     44      -4.194    
   1263      1     60     44      -4.194    
   1264      1     61     44      -4.194    
   1265      1     62     44      -4.194    
   1266      1     63     44      -4.194    
   1267      1     64     44      -4.194    
   1268      1     65     44      -4.194    
   1269      1     73     44      -4.195    
   1270      1     74     44      -4.195    
   1271      1     75     44      -4.196    
   1272      1     76     44      -4.196    
   1273      1     77     44      -3.376    
   1274      1     78     44      -3.376    
   1275      1     79     44      -3.377    
   1276      1     80     44      -3.377    
   1277      1     81     44      -6.753    
   1278      1     82     44      -3.377    
   1279      1     83     44      -3.377    
   1280      1     84     44      -3.377    
   1281      1     85     44      -3.377    
   1282      1     86     44      -3.377    
   1283      1     87     44      -3.377    
   1284      1     22     45      -13.42    
   1285      1     23     45      -6.710    
   1286      1     24     45      -6.710    
   1287      1     25     45      -6.710    
   1288      1     26     45      -6.710    
   1289      1     27     45      -6.711    
   1290      1     28     45      -6.711    
   1291      1     29     45      -6.711    
   1292      1     30     45      -6.711    
   1293      1     31     45      -13.42    
   1294      1     32     45      -13.42    
   1295      1     35     45      -2.655    
   1296      1     36     45      -13.42    
   1297      1     37     45      -13.42    
   1298      1     38     45      -13.43    
   1299      1     39     45      -13.43    
   1300      1     40     45      -5.061    
   1301      1     41     45      -5.061    
   1302      1     42     45      -5.062    
   1303      1     43     45      -5.062    
   1304      1     44     45      -5.062    
   1305      1     45     45      -5.062    
   1306      1     53     45      -5.063    
   1307      1     54     45      -5.063    
   1308      1     57     45      -5.064    
   1309      1     58     45      -5.064    
   1310      1     59     45      -16.78    
   1311      1     60     45      -8.388    
   1312      1     61     45      -8.388    
   1313      1     62     45      -8.388    
   1314      1     63     45      -8.388    
   1315      1     64     45      -8.389    
   1316      1     65     45      -8.389    
   1317      1     73     45      -4.195    
   1318      1     74     45      -4.195    
   1319      1     75     45      -4.196    
   1320      1     76     45      -4.196    
   1321      1     77     45      -3.376    
   1322      1     78     45      -3.376    
   1323      1     79     45      -3.377    
   1324      1     80     45      -3.377    
   1325      1     81     45      -6.753    
   1326      1     82     45      -3.377    
   1327      1     83     45      -3.377    
   1328      1     84     45      -3.377    
   1329      1     85     45      -3.377    
   1330      1     86     45      -3.377    
   1331      1     87     45      -3.377    
   1332      1     22     46      -13.42    
   1333      1     23     46      -6.710    
   1334      1     24     46      -6.710    
   1335      1     25     46      -6.710    
   1336      1     26     46      -6.710    
   1337      1     27     46      -6.711    
   1338      1     28     46      -6.711    
   1339      1     29     46      -6.711    
   1340      1     30     46      -6.711    
   1341      1     31     46      -6.711    
   1342      1     32     46      -6.711    
   1343      1     33     46      -6.712    
   1344      1     34     46      -6.712    
   1345      1     36     46      -6.712    
   1346      1     37     46      -6.712    
   1347      1     38     46      -6.713    
   1348      1     39     46      -6.713    
   1349      1     40     46      -2.531    
   1350      1     41     46      -2.531    
   1351      1     42     46      -2.531    
   1352      1     43     46      -2.531    
   1353      1     47     46     -0.2286    
   1354      1     48     46     -0.2286    
   1355      1     49     46     -0.2286    
   1356      1     50     46     -0.2286    
   1357      1     51     46      -2.531    
   1358      1     52     46      -2.531    
   1359      1     53     46      -2.532    
   1360      1     54     46      -2.532    
   1361      1     55     46      -2.532    
   1362      1     56     46      -2.532    
   1363      1     57     46      -2.532    
   1364      1     58     46      -2.532    
   1365      1     59     46      -8.388    
   1366      1     60     46      -4.194    
   1367      1     61     46      -4.194    
   1368      1     62     46      -4.194    
   1369      1     63     46      -4.194    
   1370      1     64     46      -4.194    
   1371      1     65     46      -4.194    
   1372      1     66     46      -4.195    
   1373      1     67     46      -4.195    
   1374      1     68     46      -4.195    
   1375      1     69     46      -4.195    
   1376      1     73     46      -4.195    
   1377      1     74     46      -4.195    
   1378      1     75     46      -4.196    
   1379      1     76     46      -4.196    
   1380      1     77     46      -3.376    
   1381      1     78     46      -3.376    
   1382      1     79     46      -3.377    
   1383      1     80     46      -3.377    
   1384      1     81     46      -6.753    
   1385      1     82     46      -3.377    
   1386      1     83     46      -3.377    
   1387      1     84     46      -3.377    
   1388      1     85     46      -3.377    
   1389      1     86     46      -3.377    
   1390      1     87     46      -3.377    
   1391      1     88     46      -3.377    
   1392      1     89     46      -3.377    
   1393      1     20     47      -17.55    
   1394      1     21     47      -17.55    
   1395      1     22     47      -26.84    
   1396      1     23     47      -13.42    
   1397      1     24     47      -13.42    
   1398      1     25     47      -13.42    
   1399      1     26     47      -13.42    
   1400      1     27     47      -13.42    
   1401      1     28     47      -13.42    
   1402      1     29     47      -13.42    
   1403      1     30     47      -13.42    
   1404      1     31     47      -6.711    
   1405      1     32     47      -6.711    
   1406      1     33     47      -6.712    
   1407      1     34     47      -6.712    
   1408      1     36     47      -6.712    
   1409      1     37     47      -6.712    
   1410      1     38     47      -6.713    
   1411      1     39     47      -6.713    
   1412      1     40     47      -2.531    
   1413      1     41     47      -2.531    
   1414      1     42     47      -2.531    
   1415      1     43     47      -2.531    
   1416      1     47     47     -0.2286    
   1417      1     48     47     -0.2286    
   1418      1     49     47     -0.2286    
   1419      1     50     47     -0.2286    
   1420      1     51     47      -2.531    
   1421      1     52     47      -2.531    
   1422      1     53     47      -2.532    
   1423      1     54     47      -2.532    
   1424      1     55     47      -2.532    
   1425      1     56     47      -2.532    
   1426      1     57     47      -2.532    
   1427      1     58     47      -2.532    
   1428      1     59     47      -8.388    
   1429      1     60     47      -4.194    
   1430      1     61     47      -4.194    
   1431      1     62     47      -4.194    
   1432      1     63     47      -4.194    
   1433      1     64     47      -4.194    
   1434      1     65     47      -4.194    
   1435      1     66     47      -4.195    
   1436      1     67     47      -4.195    
   1437      1     68     47      -4.195    
   1438      1     69     47      -4.195    
   1439      1     73     47      -4.195    
   1440      1     74     47      -4.195    
   1441      1     75     47      -4.196    
   1442      1     76     47      -4.196    
   1443      1     77     47      -3.376    
   1444      1     78     47      -3.376    
   1445      1     79     47      -3.377    
   1446      1     80     47      -3.377    
   1447      1     81     47      -6.753    
   1448      1     82     47      -3.377    
   1449      1     83     47      -3.377    
   1450      1     84     47      -3.377    
   1451      1     85     47      -3.377    
   1452      1     86     47      -3.377    
   1453      1     87     47      -3.377    
   1454      1     88     47      -3.377    
   1455      1     89     47      -3.377    
   1456      1     16     48      -10.93    
   1457      1     17     48      -10.93    
   1458      1     20     48      -10.93    
   1459      1     21     48      -10.93    
   1460      1     22     48      -16.28    
   1461      1     23     48      -8.143    
   1462      1     24     48      -8.143    
   1463      1     25     48      -8.143    
   1464      1     26     48      -8.143    
   1465      1     29     48      -8.144    
   1466      1     30     48      -8.144    
   1467      1     31     48      -8.144    
   1468      1     32     48      -8.144    
   1469      1     33     48      -8.145    
   1470      1     34     48      -8.145    
   1471      1     35     48      -1.608    
   1472      1     38     48      -8.146    
   1473      1     39     48      -8.146    
   1474      1     40     48      -6.037    
   1475      1     41     48      -6.037    
   1476      1     46     48      -1.061    
   1477      1     47     48      -6.038    
   1478      1     48     48      -6.038    
   1479      1     49     48      -6.038    
   1480      1     50     48      -6.038    
   1481      1     51     48      -6.039    
   1482      1     52     48      -6.039    
   1483      1     53     48      -6.039    
   1484      1     54     48      -6.039    
   1485      1     55     48      -6.039    
   1486      1     56     48      -6.039    
   1487      1     57     48      -6.040    
   1488      1     58     48      -6.040    
   1489      1     59     48      -19.19    
   1490      1     60     48      -9.595    
   1491      1     61     48      -9.595    
   1492      1     64     48      -9.596    
   1493      1     65     48      -9.596    
   1494      1     66     48      -9.597    
   1495      1     67     48      -9.597    
   1496      1     68     48      -9.597    
   1497      1     69     48      -9.597    
   1498      1     73     48      -9.598    
   1499      1     74     48      -9.598    
   1500      1     79     48      -7.228    
   1501      1     80     48      -7.228    
   1502      1     81     48      -9.637    
   1503      1     82     48      -9.638    
   1504      1     83     48      -9.638    
   1505      1     84     48      -7.229    
   1506      1     85     48      -7.229    
   1507      1     88     48      -7.229    
   1508      1     89     48      -7.229    
   1509      1     16     49      -10.93    
   1510      1     17     49      -10.93    
   1511      1     20     49      -10.93    
   1512      1     21     49      -10.93    
   1513      1     22     49      -16.28    
   1514      1     23     49      -8.143    
   1515      1     24     49      -8.143    
   1516      1     25     49      -8.143    
   1517      1     26     49      -8.143    
   1518      1     29     49      -8.144    
   1519      1     30     49      -8.144    
   1520      1     31     49      -8.144    
   1521      1     32     49      -8.144    
   1522      1     33     49      -8.145    
   1523      1     34     49      -8.145    
   1524      1     35     49      -1.608    
   1525      1     38     49      -8.146    
   1526      1     39     49      -8.146    
   1527      1     40     49      -6.037    
   1528      1     41     49      -6.037    
   1529      1     46     49      -1.061    
   1530      1     47     49      -6.038    
   1531      1     48     49      -6.038    
   1532      1     49     49      -6.038    
   1533      1     50     49      -6.038    
   1534      1     51     49      -6.039    
   1535      1     52     49      -6.039    
   1536      1     53     49      -6.039    
   1537      1     54     49      -6.039    
   1538      1     55     49      -6.039    
   1539      1     56     49      -6.039    
   1540      1     57     49      -6.040    
   1541      1     58     49      -6.040    
   1542      1     59     49      -19.19    
   1543      1     60     49      -9.595    
   1544      1     61     49      -9.595    
   1545      1     64     49      -9.596    
   1546      1     65     49      -9.596    
   1547      1     66     49      -9.597    
   1548      1     67     49      -9.597    
   1549      1     68     49      -9.597    
   1550      1     69     49      -9.597    
   1551      1     73     49      -9.598    
   1552      1     74     49      -9.598    
   1553      1     79     49      -7.228    
   1554      1     80     49      -7.228    
   1555      1     81     49      -9.637    
   1556      1     82     49      -9.637    
   1557      1     83     49      -9.638    
   1558      1     84     49      -7.229    
   1559      1     85     49      -7.229    
   1560      1     88     49      -7.229    
   1561      1     89     49      -7.229    
   1562      1     16     50      -10.93    
   1563      1     17     50      -10.93    
   1564      1     20     50      -10.93    
   1565      1     21     50      -10.93    
   1566      1     22     50      -16.28    
   1567      1     23     50      -8.143    
   1568      1     24     50      -8.143    
   1569      1     25     50      -8.143    
   1570      1     26     50      -8.143    
   1571      1     29     50      -8.144    
   1572      1     30     50      -8.144    
   1573      1     31     50      -8.144    
   1574      1     32     50      -8.144    
   1575      1     33     50      -8.145    
   1576      1     34     50      -8.145    
   1577      1     35     50      -16.29    
   1578      1     38     50      -8.146    
   1579      1     39     50      -8.146    
   1580      1     40     50      -6.037    
   1581      1     41     50      -6.037    
   1582      1     42     50     -0.5307    
   1583      1     43     50     -0.5307    
   1584      1     46     50      -1.061    
   1585      1     47     50      -6.038    
   1586      1     48     50      -6.038    
   1587      1     49     50      -6.038    
   1588      1     50     50      -6.038    
   1589      1     51     50      -6.039    
   1590      1     52     50      -6.039    
   1591      1     53     50      -6.039    
   1592      1     54     50      -6.039    
   1593      1     55     50      -6.039    
   1594      1     56     50      -6.039    
   1595      1     57     50      -6.040    
   1596      1     58     50      -6.040    
   1597      1     59     50      -19.19    
   1598      1     64     50      -9.596    
   1599      1     65     50      -9.596    
   1600      1     66     50      -9.597    
   1601      1     67     50      -9.597    
   1602      1     68     50      -9.597    
   1603      1     69     50      -9.597    
   1604      1     70     50      -19.19    
   1605      1     73     50      -12.80    
   1606      1     74     50      -12.80    
   1607      1     77     50      -26.44    
   1608      1     78     50      -26.44    
   1609      1     79     50      -14.46    
   1610      1     80     50      -14.46    
   1611      1     81     50      -14.46    
[...]
  16855      1    108    258       521.2    
  16856      1    108    259       521.2    
  16857      1    108    260       521.2    
  16858      1    108    261       521.2    
  16859      1    109    241       521.2    
  16860      1    109    242       521.2    
  16861      1    109    243       521.2    
  16862      1    109    245       521.2    
  16863      1    109    247       521.2    
  16864      1    109    250       521.2    
  16865      1    109    252       521.2    
  16866      1    109    255       521.2    
  16867      1    109    258       521.2    
  16868      1    109    259       521.2    
  16869      1    109    260       521.2    
  16870      1    109    294       521.2    
  16871      1    109    339       521.2    
  16872      1    110    244       521.2    
  16873      1    110    245       521.2    
  16874      1    110    246       521.2    
  16875      1    110    249       521.2    
  16876      1    110    252       521.2    
  16877      1    110    255       521.2    
  16878      1    110    257       521.2    
  16879      1    110    295       521.2    
  16880      1    110    332       521.2    
  16881      1    110    333       521.2    
  16882      1    110    338       521.2    
  16883      1    111    246       521.2    
  16884      1    111    249       521.2    
  16885      1    111    252       521.2    
  16886      1    111    254       521.2    
  16887      1    111    256       521.2    
  16888      1    111    271       521.2    
  16889      1    111    285       521.2    
  16890      1    111    286       521.2    
  16891      1    111    295       521.2    
  16892      1    111    332       521.2    
  16893      1    111    338       521.2    
  16894      1    112    247       521.2    
  16895      1    112    249       521.2    
  16896      1    112    251       521.2    
  16897      1    112    252       521.2    
  16898      1    112    253       521.2    
  16899      1    112    254       521.2    
  16900      1    112    255       521.2    
  16901      1    112    271       521.2    
  16902      1    112    284       521.2    
  16903      1    112    285       521.2    
  16904      1    112    295       521.2    
  16905      1    112    333       521.2    
  16906      1    113    248       521.2    
  16907      1    113    249       521.2    
  16908      1    113    250       521.2    
  16909      1    113    255       521.2    
  16910      1    113    270       521.2    
  16911      1    113    277       521.2    
  16912      1    113    278       521.2    
  16913      1    113    283       521.2    
  16914      1    113    295       521.2    
  16915      1    113    298       521.2    
  16916      1    113    299       521.2    
  16917      1    113    322       521.2    
  16918      1    113    332       521.2    
  16919      1    114    254       521.2    
  16920      1    114    262       521.2    
  16921      1    114    263       521.2    
  16922      1    114    269       521.2    
  16923      1    114    270       521.2    
  16924      1    114    276       521.2    
  16925      1    114    283       521.2    
  16926      1    114    291       521.2    
  16927      1    114    296       521.2    
  16928      1    114    297       521.2    
  16929      1    114    298       521.2    
  16930      1    114    323       521.2    
  16931      1    114    333       521.2    
  16932      1    115    254       521.2    
  16933      1    115    261       521.2    
  16934      1    115    270       521.2    
  16935      1    115    275       521.2    
  16936      1    115    276       521.2    
  16937      1    115    283       521.2    
  16938      1    115    291       521.2    
  16939      1    115    297       521.2    
  16940      1    115    298       521.2    
  16941      1    115    304       521.2    
  16942      1    115    306       521.2    
  16943      1    115    323       521.2    
  16944      1    115    324       521.2    
  16945      1    115    333       521.2    
  16946      1    116    254       521.2    
  16947      1    116    255       521.2    
  16948      1    116    260       521.2    
  16949      1    116    261       521.2    
  16950      1    116    270       521.2    
  16951      1    116    271       521.2    
  16952      1    116    272       521.2    
  16953      1    116    273       521.2    
  16954      1    116    274       521.2    
  16955      1    116    283       521.2    
  16956      1    116    291       521.2    
  16957      1    116    298       521.2    
  16958      1    116    299       521.2    
  16959      1    116    304       521.2    
  16960      1    116    306       521.2    
  16961      1    116    325       521.2    
  16962      1    116    326       521.2    
  16963      1    117    255       521.2    
  16964      1    117    256       521.2    
  16965      1    117    257       521.2    
  16966      1    117    258       521.2    
  16967      1    117    259       521.2    
  16968      1    117    267       521.2    
  16969      1    117    268       521.2    
  16970      1    117    269       521.2    
  16971      1    117    282       521.2    
  16972      1    117    291       521.2    
  16973      1    117    299       521.2    
  16974      1    117    305       521.2    
  16975      1    117    306       521.2    
  16976      1    117    312       521.2    
  16977      1    117    313       521.2    
  16978      1    117    327       521.2    
  16979      1    118    256       521.2    
  16980      1    118    258       521.2    
  16981      1    118    267       521.2    
  16982      1    118    281       521.2    
  16983      1    118    282       521.2    
  16984      1    118    291       521.2    
  16985      1    118    298       521.2    
  16986      1    118    305       521.2    
  16987      1    118    312       521.2    
  16988      1    118    323       521.2    
  16989      1    118    327       521.2    
  16990      1    119    256       521.2    
  16991      1    119    257       521.2    
  16992      1    119    267       521.2    
  16993      1    119    281       521.2    
  16994      1    119    291       521.2    
  16995      1    119    298       521.2    
  16996      1    119    305       521.2    
  16997      1    119    312       521.2    
  16998      1    119    324       521.2    
  16999      1    119    327       521.2    
  17000      1    120    257       521.2    
  17001      1    120    260       521.2    
  17002      1    120    261       521.2    
  17003      1    120    262       521.2    
  17004      1    120    266       521.2    
  17005      1    120    267       521.2    
  17006      1    120    280       521.2    
  17007      1    120    291       521.2    
  17008      1    120    298       521.2    
  17009      1    120    300       521.2    
  17010      1    120    306       521.2    
  17011      1    120    312       521.2    
  17012      1    120    325       521.2    
  17013      1    120    326       521.2    
  17014      1    120    327       521.2    
  17015      1    121    257       521.2    
  17016      1    121    258       521.2    
  17017      1    121    259       521.2    
  17018      1    121    263       521.2    
  17019      1    121    264       521.2    
  17020      1    121    266       521.2    
  17021      1    121    270       521.2    
  17022      1    121    280       521.2    
  17023      1    121    291       521.2    
  17024      1    121    298       521.2    
  17025      1    121    299       521.2    
  17026      1    121    300       521.2    
  17027      1    121    305       521.2    
  17028      1    121    311       521.2    
  17029      1    121    312       521.2    
  17030      1    121    326       521.2    
  17031      1    121    327       521.2    
  17032      1    122    263       521.2    
  17033      1    122    265       521.2    
  17034      1    122    271       521.2    
  17035      1    122    272       521.2    
  17036      1    122    278       521.2    
  17037      1    122    279       521.2    
  17038      1    122    291       521.2    
  17039      1    122    298       521.2    
  17040      1    122    305       521.2    
  17041      1    122    311       521.2    
  17042      1    123    263       521.2    
  17043      1    123    273       521.2    
  17044      1    123    278       521.2    
  17045      1    123    291       521.2    
  17046      1    123    295       521.2    
  17047      1    123    299       521.2    
  17048      1    123    305       521.2    
  17049      1    123    310       521.2    
  17050      1    123    326       521.2    
  17051      1    124    264       521.2    
  17052      1    124    272       521.2    
  17053      1    124    274       521.2    
  17054      1    124    278       521.2    
  17055      1    124    291       521.2    
  17056      1    124    295       521.2    
  17057      1    124    300       521.2    
  17058      1    124    304       521.2    
  17059      1    124    310       521.2    
  17060      1    124    326       521.2    
  17061      1    125    265       521.2    
  17062      1    125    267       521.2    
  17063      1    125    268       521.2    
  17064      1    125    271       521.2    
  17065      1    125    274       521.2    
  17066      1    125    277       521.2    
  17067      1    125    291       521.2    
  17068      1    125    295       521.2    
  17069      1    125    300       521.2    
  17070      1    125    301       521.2    
  17071      1    125    302       521.2    
  17072      1    125    303       521.2    
  17073      1    125    304       521.2    
  17074      1    125    310       521.2    
  17075      1    125    325       521.2    
  17076      1    126    266       521.2    
  17077      1    126    267       521.2    
  17078      1    126    271       521.2    
  17079      1    126    274       521.2    
  17080      1    126    277       521.2    
  17081      1    126    291       521.2    
  17082      1    126    295       521.2    
  17083      1    126    300       521.2    
  17084      1    126    310       521.2    
  17085      1    126    312       521.2    
  17086      1    127    267       521.2    
  17087      1    127    271       521.2    
  17088      1    127    273       521.2    
  17089      1    127    277       521.2    
  17090      1    127    286       521.2    
  17091      1    127    290       521.2    
  17092      1    127    294       521.2    
  17093      1    127    299       521.2    
  17094      1    127    310       521.2    
  17095      1    127    311       521.2    
  17096      1    127    324       521.2    
  17097      1    128    267       521.2    
  17098      1    128    270       521.2    
  17099      1    128    271       521.2    
  17100      1    128    273       521.2    
  17101      1    128    276       521.2    
  17102      1    128    286       521.2    
  17103      1    128    287       521.2    
  17104      1    128    288       521.2    
  17105      1    128    290       521.2    
  17106      1    128    294       521.2    
  17107      1    128    299       521.2    
  17108      1    128    303       521.2    
  17109      1    128    309       521.2    
  17110      1    128    310       521.2    
  17111      1    128    311       521.2    
  17112      1    128    323       521.2    
  17113      1    129    268       521.2    
  17114      1    129    269       521.2    
  17115      1    129    271       521.2    
  17116      1    129    272       521.2    
  17117      1    129    273       521.2    
  17118      1    129    276       521.2    
  17119      1    129    277       521.2    
  17120      1    129    289       521.2    
  17121      1    129    290       521.2    
  17122      1    129    293       521.2    
  17123      1    129    299       521.2    
  17124      1    129    300       521.2    
  17125      1    129    301       521.2    
  17126      1    129    302       521.2    
  17127      1    129    305       521.2    
  17128      1    129    307       521.2    
  17129      1    129    308       521.2    
  17130      1    129    311       521.2    
  17131      1    130    273       521.2    
  17132      1    130    274       521.2    
  17133      1    130    276       521.2    
  17134      1    130    277       521.2    
  17135      1    130    288       521.2    
  17136      1    130    289       521.2    
  17137      1    130    290       521.2    
  17138      1    130    291       521.2    
  17139      1    130    292       521.2    
  17140      1    130    299       521.2    
  17141      1    130    303       521.2    
  17142      1    130    304       521.2    
  17143      1    130    305       521.2    
  17144      1    130    306       521.2    
  17145      1    130    310       521.2    
  17146      1    131    274       521.2    
  17147      1    131    277       521.2    
  17148      1    131    287       521.2    
  17149      1    131    289       521.2    
  17150      1    131    292       521.2    
  17151      1    131    293       521.2    
  17152      1    131    294       521.2    
  17153      1    131    299       521.2    
  17154      1    131    303       521.2    
  17155      1    131    310       521.2    
  17156      1    132    274       521.2    
  17157      1    132    276       521.2    
  17158      1    132    283       521.2    
  17159      1    132    288       521.2    
  17160      1    132    295       521.2    
  17161      1    132    296       521.2    
  17162      1    132    297       521.2    
  17163      1    132    299       521.2    
  17164      1    132    301       521.2    
  17165      1    132    302       521.2    
  17166      1    132    310       521.2    
  17167      1    133    275       521.2    
  17168      1    133    276       521.2    
  17169      1    133    283       521.2    
  17170      1    133    288       521.2    
  17171      1    133    297       521.2    
  17172      1    133    298       521.2    
  17173      1    133    300       521.2    
  17174      1    133    301       521.2    
  17175      1    133    304       521.2    
  17176      1    133    310       521.2    
  17177      1    133    317       521.2    
  17178      1    134    275       521.2    
  17179      1    134    276       521.2    
  17180      1    134    284       521.2    
  17181      1    134    289       521.2    
  17182      1    134    299       521.2    
  17183      1    134    300       521.2    
  17184      1    134    304       521.2    
  17185      1    134    310       521.2    
  17186      1    134    315       521.2    
  17187      1    134    316       521.2    
  17188      1    135    277       521.2    
  17189      1    135    278       521.2    
  17190      1    135    284       521.2    
  17191      1    135    288       521.2    
  17192      1    135    301       521.2    
  17193      1    135    302       521.2    
  17194      1    135    303       521.2    
  17195      1    135    305       521.2    
  17196      1    135    310       521.2    
  17197      1    135    313       521.2    
  17198      1    135    314       521.2    
  17199      1    136    279       521.2    
  17200      1    136    282       521.2    
  17201      1    136    285       521.2    
  17202      1    136    286       521.2    
  17203      1    136    287       521.2    
  17204      1    136    301       521.2    
  17205      1    136    304       521.2    
  17206      1    136    308       521.2    
  17207      1    136    309       521.2    
  17208      1    136    310       521.2    
  17209      1    136    312       521.2    
  17210      1    137    280       521.2    
  17211      1    137    282       521.2    
  17212      1    137    285       521.2    
  17213      1    137    302       521.2    
  17214      1    137    303       521.2    
  17215      1    137    306       521.2    
  17216      1    137    307       521.2    
  17217      1    137    309       521.2    
  17218      1    137    311       521.2    
  17219      1    138    281       521.2    
  17220      1    138    282       521.2    
  17221      1    138    284       521.2    
  17222      1    138    302       521.2    
  17223      1    138    307       521.2    
  17224      1    139    282       521.2    
  17225      1    139    283       521.2    
  17226      1    139    284       521.2    
  17227      1    139    302       521.2    
  17228      1    139    303       521.2    
  17229      1    139    305       521.2    
  17230      1    139    306       521.2    
  17231      1    140    302       521.2    
  17232      1    140    303       521.2    
  17233      1    140    304       521.2    
  17234      1    140    305       521.2    
  17235      1    140    306       521.2    
  17236      1    140    307       521.2    
  17237      1    141    302       521.2    

  17237 WELLS

  54036 DRAINS



                           RECHARGE
 READING ON UNIT   19 WITH FORMAT: (342E15.6)          
 
 SOLVING FOR HEAD 

    ------------------------------------------------
       NWT REQUIRED            5 OUTER ITERATIONS 
       AND A TOTAL OF          7 INNER ITERATIONS.
    ------------------------------------------------

 OUTPUT CONTROL FOR STRESS PERIOD    1   TIME STEP    1
    SAVE HEAD FOR ALL LAYERS

 HEAD WILL BE SAVED ON UNIT   51 AT END OF TIME STEP    1, STRESS PERIOD    1
1
  VOLUMETRIC BUDGET FOR ENTIRE MODEL AT END OF TIME STEP    1, STRESS PERIOD   1
  ------------------------------------------------------------------------------

     CUMULATIVE VOLUMES      L**3       RATES FOR THIS TIME STEP      L**3/T
     ------------------                 ------------------------

           IN:                                      IN:
           ---                                      ---
             STORAGE =     1356736.6250               STORAGE =     1356736.6250
       CONSTANT HEAD =           0.0000         CONSTANT HEAD =           0.0000
               WELLS =      828153.9375                 WELLS =      828153.9375
              DRAINS =           0.0000                DRAINS =           0.0000
            RECHARGE =      417248.7500              RECHARGE =      417248.7500

            TOTAL IN =     2602139.2500              TOTAL IN =     2602139.2500

          OUT:                                     OUT:
          ----                                     ----
             STORAGE =     1120887.6250               STORAGE =     1120887.6250
       CONSTANT HEAD =           0.0000         CONSTANT HEAD =           0.0000
               WELLS =      223960.9219                 WELLS =      223960.9219
              DRAINS =     1256914.0000                DRAINS =     1256914.0000
            RECHARGE =           0.0000              RECHARGE =           0.0000

           TOTAL OUT =     2601762.5000             TOTAL OUT =     2601762.5000

            IN - OUT =         376.7500              IN - OUT =         376.7500

 PERCENT DISCREPANCY =           0.01     PERCENT DISCREPANCY =           0.01






         TIME SUMMARY AT END OF TIME STEP    1 IN STRESS PERIOD    1
                    SECONDS     MINUTES      HOURS       DAYS        YEARS
                    -----------------------------------------------------------
   TIME STEP LENGTH  86400.      1440.0      24.000      1.0000     2.73785E-03
 STRESS PERIOD TIME  86400.      1440.0      24.000      1.0000     2.73785E-03
         TOTAL TIME  86400.      1440.0      24.000      1.0000     2.73785E-03
1

 Run end date and time (yyyy/mm/dd hh:mm:ss): 2020/04/29 13:10:53
 Elapsed run time:  0.791 Seconds

