                                  MODFLOW-NWT-SWR1 
      U.S. GEOLOGICAL SURVEY MODULAR FINITE-DIFFERENCE GROUNDWATER-FLOW MODEL
                             VERSION 1.1.4 4/01/2018
                    BASED ON MODFLOW-2005 VERSION 1.12.00 02/03/2017

 LIST FILE: C:/GitHub/FUSE/Modflow/output/Bhima_transient.list
                         UNIT    2

 OPENING C:/GitHub/FUSE/Modflow/output/Bhima_transient.dis
 FILE TYPE:DIS   UNIT   11   STATUS:OLD    
 FORMAT:FORMATTED              ACCESS:SEQUENTIAL          

 OPENING C:/GitHub/FUSE/Modflow/output/Bhima_transient.bas
 FILE TYPE:BAS6   UNIT   13   STATUS:OLD    
 FORMAT:FORMATTED              ACCESS:SEQUENTIAL          

 OPENING C:/GitHub/FUSE/Modflow/output/Bhima_transient.upw
 FILE TYPE:UPW   UNIT   31   STATUS:OLD    
 FORMAT:FORMATTED              ACCESS:SEQUENTIAL          

 OPENING C:/GitHub/FUSE/Modflow/output/Bhima_transient.nwt
 FILE TYPE:NWT   UNIT   32   STATUS:OLD    
 FORMAT:FORMATTED              ACCESS:SEQUENTIAL          

 OPENING C:/GitHub/FUSE/Modflow/output/Bhima_transient.drn
 FILE TYPE:DRN   UNIT   21   STATUS:OLD    
 FORMAT:FORMATTED              ACCESS:SEQUENTIAL          

 OPENING C:/GitHub/FUSE/Modflow/output/Bhima_transient.rch
 FILE TYPE:RCH   UNIT   19   STATUS:OLD    
 FORMAT:FORMATTED              ACCESS:SEQUENTIAL          

 OPENING C:/GitHub/FUSE/Modflow/output/Bhima_transient.oc
 FILE TYPE:OC   UNIT   14   STATUS:OLD    
 FORMAT:FORMATTED              ACCESS:SEQUENTIAL          

 OPENING C:/GitHub/FUSE/Modflow/output/Bhima_transient.hds
 FILE TYPE:DATA(BINARY)   UNIT   51   STATUS:REPLACE
 FORMAT:BINARY                 ACCESS:SEQUENTIAL          

 BAS -- BASIC PACKAGE, VERSION 1.1.4, 4/01/2018 INPUT READ FROM UNIT   13
 
 MODFLOW was compiled using mixed precision
 Precision of REAL variables:           6
 Precision of DOUBLE PRECISION variables:          15

 DISCRETIZATION INPUT DATA READ FROM UNIT   11
 # DIS package for  MODFLOW-NWT, generated by Flopy.
    1 LAYERS       158 ROWS       342 COLUMNS
    1 STRESS PERIOD(S) IN SIMULATION
 MODEL TIME UNIT IS DAYS
 MODEL LENGTH UNIT IS METERS
  Confining bed flag for each layer:
   0

                     DELR =   500.000    

                     DELC =   500.000    



           TOP ELEVATION OF LAYER 1
 READING ON UNIT   11 WITH FORMAT: (342E15.6)          



             MODEL LAYER BOTTOM EL. FOR LAYER   1
 READING ON UNIT   11 WITH FORMAT: (342E15.6)          


 STRESS PERIOD     LENGTH       TIME STEPS     MULTIPLIER FOR DELT    SS FLAG
 ----------------------------------------------------------------------------
        1         1.000000          1                    1.000         TR

 TRANSIENT SIMULATION



 
 # BAS6 package for  MODFLOW-NWT, generated by Flopy.                            
 THE FREE FORMAT OPTION HAS BEEN SELECTED



                     BOUNDARY ARRAY FOR LAYER   1
 READING ON UNIT   13 WITH FORMAT: (342I10)            

 AQUIFER HEAD WILL BE SET TO  -999.99     AT ALL NO-FLOW NODES (IBOUND=0).



                       INITIAL HEAD FOR LAYER   1
 READING ON UNIT   13 WITH FORMAT: (342E15.6)          
 # OC package for  MODFLOW-NWT, generated by Flopy.

 OUTPUT CONTROL IS SPECIFIED ONLY AT TIME STEPS FOR WHICH OUTPUT IS DESIRED
 COMPACT CELL-BY-CELL BUDGET FILES WILL BE WRITTEN
 AUXILIARY DATA WILL BE SAVED IN CELL-BY-CELL BUDGET FILES
 HEAD PRINT FORMAT CODE IS   0    DRAWDOWN PRINT FORMAT CODE IS   0
 HEADS WILL BE SAVED ON UNIT   51    DRAWDOWNS WILL BE SAVED ON UNIT    0
 # NWT package for  MODFLOW-NWT, generated by Flopy.

 NWT1 -- Newton Solver, VERSION 1.1.4, 4/01/2018
         INPUT READ FROM UNIT 32

 COMPLEX OPTION:
 DEFAULT SOLVER INPUT VALUES REFLECT STRONGLY NONLINEAR MODEL
 ***GMRES linear solver will be used***
 
   CONVERGENCE CRITERION OF   0.100000E-01 FOR HEAD SOLUTION
   AND A TOLERANCE OF   0.500000E+03 FOR FLOW SOLUTION AND 
   A MAXIMUM OF   100 OUTER ITERATIONS. 


   D-B-D REDUCTION FACTOR OF    0.850000E+00 AND 
   A D-B-D INCREASE FACTOR OF    0.100000E-04 AND 
   A D-B-D RELAXATION OF    0.000000E+00 AND 
   A MOMENTUM FACTOR OF    0.100000E+00 .


   BACKTRACKING IS ACTIVE 
   THE MAXIMUM NUMBER OF BACKTRACKS IS    50 AND 
   THE BACKTRACKING TOLERANCE IS    0.110000E+01 AND
   THE BACKTRACKING REDUCTION FACTOR IS    0.700000E+00

 GMRES -- LINEAR SOLUTION BY GMRES PACKAGE 
     adapted for HYDROTHERM by Kipp and others (2008)
     using software originally developed by Saad (1990) 32
     using algorithms described in Saad (2003)

 UPW1 -- UPSTREAM WEIGHTING FLOW PACKAGE, VERSION 1.1.4, 4/01/2018
         INPUT READ FROM UNIT 31

 # UPW package for  MODFLOW-NWT, generated by Flopy.
 No named parameters

   LAYER FLAGS:
 LAYER       LAYTYP          LAYAVG    CHANI           LAYVKA           LAYWET
 ---------------------------------------------------------------------------
    1             1             0     1.000E+00             1             0

   INTERPRETATION OF LAYER FLAGS:
                        INTERBLOCK     HORIZONTAL    DATA IN
         LAYER TYPE   TRANSMISSIVITY   ANISOTROPY   ARRAY VKA   WETTABILITY
 LAYER   (LAYTYP)        (LAYAVG)      (CHANI)     (LAYVKA)       (LAYWET)
 ---------------------------------------------------------------------------
    1   CONVERTIBLE      HARMONIC     1.000E+00    ANISOTROPY  NON-WETTABLE



              HYD. COND. ALONG ROWS FOR LAYER   1
 READING ON UNIT   31 WITH FORMAT: (342E15.6)          

  HORIZ. TO VERTICAL ANI. =   5.00000     FOR LAYER   1



                   SPECIFIC STORAGE FOR LAYER   1
 READING ON UNIT   31 WITH FORMAT: (342E15.6)          

           SPECIFIC YIELD =  3.000000E-02 FOR LAYER   1

 DRN -- DRAIN PACKAGE, VERSION 7, 5/2/2005 INPUT READ FROM UNIT   21
 # DRN package for  MODFLOW-NWT, generated by Flopy.
 No named parameters
 MAXIMUM OF  54036 ACTIVE DRAINS AT ONE TIME
 LISTS OF DRAIN CELLS WILL NOT BE PRINTED


     0 Drain parameters

 RCH -- RECHARGE PACKAGE, VERSION 7, 5/2/2005 INPUT READ FROM UNIT   19
 # RCH package for  MODFLOW-NWT, generated by Flopy.
 No named parameters
 OPTION 3 -- RECHARGE TO HIGHEST ACTIVE NODE IN EACH VERTICAL COLUMN


     0 Recharge parameters
1
                            STRESS PERIOD NO.    1, LENGTH =   1.000000    
                            -----------------------------------------------

                              NUMBER OF TIME STEPS =     1

                               MULTIPLIER FOR DELT =     1.000

                            INITIAL TIME STEP SIZE =   1.000000    

  54036 DRAINS



                           RECHARGE
 READING ON UNIT   19 WITH FORMAT: (342E15.6)          
 
 SOLVING FOR HEAD 

    ------------------------------------------------
       NWT REQUIRED          100 OUTER ITERATIONS 
       AND A TOTAL OF        102 INNER ITERATIONS.
    ------------------------------------------------

 OUTPUT CONTROL FOR STRESS PERIOD    1   TIME STEP    1
    SAVE HEAD FOR ALL LAYERS

         ****FAILED TO MEET SOLVER CONVERGENCE CRITERIA IN TIME STEP    1 OF STRESS PERIOD    1****

 HEAD WILL BE SAVED ON UNIT   51 AT END OF TIME STEP    1, STRESS PERIOD    1
1
  VOLUMETRIC BUDGET FOR ENTIRE MODEL AT END OF TIME STEP    1, STRESS PERIOD   1
  ------------------------------------------------------------------------------

     CUMULATIVE VOLUMES      L**3       RATES FOR THIS TIME STEP      L**3/T
     ------------------                 ------------------------

           IN:                                      IN:
           ---                                      ---
             STORAGE =     3307025.0000               STORAGE =     3307025.0000
       CONSTANT HEAD =           0.0000         CONSTANT HEAD =           0.0000
              DRAINS =           0.0000                DRAINS =           0.0000
            RECHARGE =      132616.5469              RECHARGE =      132616.5469

            TOTAL IN =     3439641.5000              TOTAL IN =     3439641.5000

          OUT:                                     OUT:
          ----                                     ----
             STORAGE =     1678943.1250               STORAGE =     1678943.1250
       CONSTANT HEAD =           0.0000         CONSTANT HEAD =           0.0000
              DRAINS =     1760698.1250                DRAINS =     1760698.1250
            RECHARGE =           0.0000              RECHARGE =           0.0000

           TOTAL OUT =     3439641.2500             TOTAL OUT =     3439641.2500

            IN - OUT =           0.2500              IN - OUT =           0.2500

 PERCENT DISCREPANCY =           0.00     PERCENT DISCREPANCY =           0.00






         TIME SUMMARY AT END OF TIME STEP    1 IN STRESS PERIOD    1
                    SECONDS     MINUTES      HOURS       DAYS        YEARS
                    -----------------------------------------------------------
   TIME STEP LENGTH  86400.      1440.0      24.000      1.0000     2.73785E-03
 STRESS PERIOD TIME  86400.      1440.0      24.000      1.0000     2.73785E-03
         TOTAL TIME  86400.      1440.0      24.000      1.0000     2.73785E-03
1
 CONTINUING EXECUTION

 Run end date and time (yyyy/mm/dd hh:mm:ss): 2020/04/10 17:39:10
 Elapsed run time:  3.189 Seconds

