                                  MODFLOW-NWT-SWR1 
      U.S. GEOLOGICAL SURVEY MODULAR FINITE-DIFFERENCE GROUNDWATER-FLOW MODEL
                             VERSION 1.1.4 4/01/2018
                    BASED ON MODFLOW-2005 VERSION 1.12.00 02/03/2017

 LIST FILE: C:/GitHub/FUSE/Modflow/output/Bhima_transient.list
                         UNIT    2

 OPENING C:/GitHub/FUSE/Modflow/output/Bhima_transient.dis
 FILE TYPE:DIS   UNIT   11   STATUS:OLD    
 FORMAT:FORMATTED              ACCESS:SEQUENTIAL          

 OPENING C:/GitHub/FUSE/Modflow/output/Bhima_transient.bas
 FILE TYPE:BAS6   UNIT   13   STATUS:OLD    
 FORMAT:FORMATTED              ACCESS:SEQUENTIAL          

 OPENING C:/GitHub/FUSE/Modflow/output/Bhima_transient.upw
 FILE TYPE:UPW   UNIT   31   STATUS:OLD    
 FORMAT:FORMATTED              ACCESS:SEQUENTIAL          

 OPENING C:/GitHub/FUSE/Modflow/output/Bhima_transient.nwt
 FILE TYPE:NWT   UNIT   32   STATUS:OLD    
 FORMAT:FORMATTED              ACCESS:SEQUENTIAL          

 OPENING C:/GitHub/FUSE/Modflow/output/Bhima_transient.drn
 FILE TYPE:DRN   UNIT   21   STATUS:OLD    
 FORMAT:FORMATTED              ACCESS:SEQUENTIAL          

 OPENING C:/GitHub/FUSE/Modflow/output/Bhima_transient.wel
 FILE TYPE:WEL   UNIT   20   STATUS:OLD    
 FORMAT:FORMATTED              ACCESS:SEQUENTIAL          

 OPENING C:/GitHub/FUSE/Modflow/output/Bhima_transient.rch
 FILE TYPE:RCH   UNIT   19   STATUS:OLD    
 FORMAT:FORMATTED              ACCESS:SEQUENTIAL          

 OPENING C:/GitHub/FUSE/Modflow/output/Bhima_transient.oc
 FILE TYPE:OC   UNIT   14   STATUS:OLD    
 FORMAT:FORMATTED              ACCESS:SEQUENTIAL          

 OPENING C:/GitHub/FUSE/Modflow/output/Bhima_transient.hds
 FILE TYPE:DATA(BINARY)   UNIT   51   STATUS:REPLACE
 FORMAT:BINARY                 ACCESS:SEQUENTIAL          

 OPENING C:/GitHub/FUSE/Modflow/output/Bhima_transient.out
 FILE TYPE:DATA   UNIT   50   STATUS:UNKNOWN
 FORMAT:FORMATTED              ACCESS:SEQUENTIAL          

 BAS -- BASIC PACKAGE, VERSION 1.1.4, 4/01/2018 INPUT READ FROM UNIT   13
 
 MODFLOW was compiled using mixed precision
 Precision of REAL variables:           6
 Precision of DOUBLE PRECISION variables:          15

 DISCRETIZATION INPUT DATA READ FROM UNIT   11
 # DIS package for  MODFLOW-NWT, generated by Flopy.
    1 LAYERS       158 ROWS       342 COLUMNS
    1 STRESS PERIOD(S) IN SIMULATION
 MODEL TIME UNIT IS DAYS
 MODEL LENGTH UNIT IS METERS
  Confining bed flag for each layer:
   0

                     DELR =   500.000    

                     DELC =   500.000    



           TOP ELEVATION OF LAYER 1
 READING ON UNIT   11 WITH FORMAT: (342E15.6)          



             MODEL LAYER BOTTOM EL. FOR LAYER   1
 READING ON UNIT   11 WITH FORMAT: (342E15.6)          


 STRESS PERIOD     LENGTH       TIME STEPS     MULTIPLIER FOR DELT    SS FLAG
 ----------------------------------------------------------------------------
        1         1.000000          1                    1.000         TR

 TRANSIENT SIMULATION



 
 # BAS6 package for  MODFLOW-NWT, generated by Flopy.                            
 THE FREE FORMAT OPTION HAS BEEN SELECTED



                     BOUNDARY ARRAY FOR LAYER   1
 READING ON UNIT   13 WITH FORMAT: (342I10)            

 AQUIFER HEAD WILL BE SET TO  -999.99     AT ALL NO-FLOW NODES (IBOUND=0).



                       INITIAL HEAD FOR LAYER   1
 READING ON UNIT   13 WITH FORMAT: (342E15.6)          
 # OC package for  MODFLOW-NWT, generated by Flopy.

 OUTPUT CONTROL IS SPECIFIED ONLY AT TIME STEPS FOR WHICH OUTPUT IS DESIRED
 COMPACT CELL-BY-CELL BUDGET FILES WILL BE WRITTEN
 AUXILIARY DATA WILL BE SAVED IN CELL-BY-CELL BUDGET FILES
 HEAD PRINT FORMAT CODE IS   0    DRAWDOWN PRINT FORMAT CODE IS   0
 HEADS WILL BE SAVED ON UNIT   51    DRAWDOWNS WILL BE SAVED ON UNIT    0
 # NWT package for  MODFLOW-NWT, generated by Flopy.

 NWT1 -- Newton Solver, VERSION 1.1.4, 4/01/2018
         INPUT READ FROM UNIT 32

 SIMPLE OPTION:
 DEFAULT SOLVER INPUT VALUES REFLECT NEARLY LINEAR MODEL
 ***GMRES linear solver will be used***
 
   CONVERGENCE CRITERION OF   0.100000E-01 FOR HEAD SOLUTION
   AND A TOLERANCE OF   0.250000E+04 FOR FLOW SOLUTION AND 
   A MAXIMUM OF   100 OUTER ITERATIONS. 


   D-B-D REDUCTION FACTOR OF    0.970000E+00 AND 
   A D-B-D INCREASE FACTOR OF    0.100000E-03 AND 
   A D-B-D RELAXATION OF    0.000000E+00 AND 
   A MOMENTUM FACTOR OF    0.000000E+00 .


 ***BACKTRACKING IS INACTIVE***
 GMRES -- LINEAR SOLUTION BY GMRES PACKAGE 
     adapted for HYDROTHERM by Kipp and others (2008)
     using software originally developed by Saad (1990) 32
     using algorithms described in Saad (2003)

 UPW1 -- UPSTREAM WEIGHTING FLOW PACKAGE, VERSION 1.1.4, 4/01/2018
         INPUT READ FROM UNIT 31

 # UPW package for  MODFLOW-NWT, generated by Flopy.
 No named parameters

   LAYER FLAGS:
 LAYER       LAYTYP          LAYAVG    CHANI           LAYVKA           LAYWET
 ---------------------------------------------------------------------------
    1             1             0     1.000E+00             1             0

   INTERPRETATION OF LAYER FLAGS:
                        INTERBLOCK     HORIZONTAL    DATA IN
         LAYER TYPE   TRANSMISSIVITY   ANISOTROPY   ARRAY VKA   WETTABILITY
 LAYER   (LAYTYP)        (LAYAVG)      (CHANI)     (LAYVKA)       (LAYWET)
 ---------------------------------------------------------------------------
    1   CONVERTIBLE      HARMONIC     1.000E+00    ANISOTROPY  NON-WETTABLE



              HYD. COND. ALONG ROWS FOR LAYER   1
 READING ON UNIT   31 WITH FORMAT: (342E15.6)          

  HORIZ. TO VERTICAL ANI. =   5.00000     FOR LAYER   1



                   SPECIFIC STORAGE FOR LAYER   1
 READING ON UNIT   31 WITH FORMAT: (342E15.6)          



                     SPECIFIC YIELD FOR LAYER   1
 READING ON UNIT   31 WITH FORMAT: (342E15.6)          

 WEL -- WELL PACKAGE FOR NWT VERSION 1.1.4,  4/01/2018 INPUT READ FROM UNIT   20
 # WEL package for  MODFLOW-NWT, generated by Flopy.
 No named parameters
 MAXIMUM OF  28914 ACTIVE WELLS AT ONE TIME
 No named parameters
 
 NEGATIVE PUMPING RATES WILL BE REDUCED IF HEAD 
 FALLS WITHIN THE INTERVAL PHIRAMP TIMES THE CELL 
 THICKNESS. THE VALUE SPECIFIED FOR PHIRAMP IS  0.10000E+00
 WELLS WITH REDUCED PUMPING WILL BE REPORTED TO FILE UNIT NUMBER   50


     0 Well parameters

 DRN -- DRAIN PACKAGE, VERSION 7, 5/2/2005 INPUT READ FROM UNIT   21
 # DRN package for  MODFLOW-NWT, generated by Flopy.
 No named parameters
 MAXIMUM OF  54036 ACTIVE DRAINS AT ONE TIME
 LISTS OF DRAIN CELLS WILL NOT BE PRINTED


     0 Drain parameters

 RCH -- RECHARGE PACKAGE, VERSION 7, 5/2/2005 INPUT READ FROM UNIT   19
 # RCH package for  MODFLOW-NWT, generated by Flopy.
 No named parameters
 OPTION 3 -- RECHARGE TO HIGHEST ACTIVE NODE IN EACH VERTICAL COLUMN


     0 Recharge parameters
1
                            STRESS PERIOD NO.    1, LENGTH =   1.000000    
                            -----------------------------------------------

                              NUMBER OF TIME STEPS =     1

                               MULTIPLIER FOR DELT =     1.000

                            INITIAL TIME STEP SIZE =   1.000000    

 WELL NO.  LAYER   ROW   COL   STRESS RATE         
 --------------------------------------------------
      1      1     29      2     -0.3115    
      2      1     30      2     -0.3115    
      3      1     31      2     -0.6230    
      4      1     29      3     -0.3115    
      5      1     30      3     -0.3115    
      6      1     31      3     -0.6230    
      7      1     29      4     -0.3115    
      8      1     30      4     -0.3115    
      9      1     31      4     -0.6230E-01
     10      1     32      4     -0.3115    
     11      1     33      4     -0.3115    
     12      1     34      4     -0.3115    
     13      1     35      4     -0.3115    
     14      1     36      4     -0.3115E-01
     15      1     37      4     -0.3115E-01
     16      1     43      4     -0.2859    
     17      1     44      4     -0.2859    
     18      1     45      4      -24.65    
     19      1     46      4      -24.65    
     20      1     29      5     -0.3115    
     21      1     30      5     -0.3115    
     22      1     31      5     -0.6230E-01
     23      1     32      5     -0.3115    
     24      1     33      5     -0.3115    
     25      1     34      5     -0.3115    
     26      1     35      5     -0.3115    
     27      1     36      5     -0.3115E-01
     28      1     37      5     -0.3115E-01
     29      1     43      5     -0.2859    
     30      1     44      5     -0.2859    
     31      1     45      5      -24.65    
     32      1     46      5      -24.65    
     33      1     29      6     -0.3115    
     34      1     30      6     -0.3115    
     35      1     31      6     -0.6230E-01
     36      1     32      6     -0.3115    
     37      1     33      6     -0.3115    
     38      1     34      6     -0.3115    
     39      1     35      6     -0.3115    
     40      1     36      6     -0.3115E-01
     41      1     37      6     -0.3115E-01
     42      1     38      6     -0.3115E-01
     43      1     39      6     -0.3115E-01
     44      1     40      6     -0.2859    
     45      1     41      6     -0.2859    
     46      1     42      6      -219.7    
     47      1     43      6     -0.2859E-01
     48      1     44      6     -0.2859E-01
     49      1     45      6     -0.2859    
     50      1     46      6     -0.2859    
     51      1     29      7     -0.3115    
     52      1     30      7     -0.3115    
     53      1     31      7     -0.6230E-01
     54      1     32      7     -0.3115    
     55      1     33      7     -0.3115    
     56      1     34      7     -0.3115    
     57      1     35      7     -0.3115    
     58      1     36      7     -0.3115E-01
     59      1     37      7     -0.3115E-01
     60      1     38      7     -0.3115E-01
     61      1     39      7     -0.3115E-01
     62      1     40      7     -0.2859    
     63      1     41      7     -0.2859    
     64      1     42      7      -219.7    
     65      1     43      7     -0.2859E-01
     66      1     44      7     -0.2859E-01
     67      1     45      7     -0.2859    
     68      1     46      7     -0.2859    
     69      1     27      8     -0.3115    
     70      1     28      8     -0.3115    
     71      1     29      8     -0.3115    
     72      1     30      8     -0.3115    
     73      1     31      8     -0.1246    
     74      1     32      8     -0.6230    
     75      1     33      8     -0.6230    
     76      1     34      8     -0.6230    
     77      1     35      8     -0.6230    
     78      1     36      8     -0.6230    
     79      1     37      8     -0.6230    
     80      1     38      8     -0.6230E-01
     81      1     39      8     -0.6230E-01
     82      1     40      8     -0.5719    
     83      1     41      8     -0.5719    
     84      1     42      8      -1.144    
     85      1     43      8     -0.5719E-01
     86      1     44      8     -0.5719E-01
     87      1     45      8     -0.5719E-01
     88      1     46      8     -0.5719E-01
     89      1     27      9     -0.3115    
     90      1     28      9     -0.3115    
     91      1     29      9     -0.3115    
     92      1     30      9     -0.3115    
     93      1     31      9     -0.6230E-01
     94      1     32      9     -0.3115    
     95      1     33      9     -0.3115    
     96      1     34      9     -0.3115    
     97      1     35      9     -0.3115    
     98      1     36      9     -0.3115    
     99      1     37      9     -0.3115    
    100      1     38      9     -0.3115    
    101      1     39      9     -0.3115    
    102      1     40      9     -0.2859E-01
    103      1     41      9     -0.2859E-01
    104      1     42      9     -0.5719    
    105      1     43      9     -0.2859    
    106      1     44      9     -0.2859    
    107      1     45      9     -0.2859E-01
    108      1     46      9     -0.2859E-01
    109      1     25     10     -0.6230    
    110      1     26     10     -0.6230    
    111      1     27     10     -0.6230E-01
    112      1     28     10     -0.6230E-01
    113      1     29     10     -0.6230E-01
    114      1     30     10     -0.6230E-01
    115      1     31     10     -0.6230E-01
    116      1     32     10     -0.3115    
    117      1     33     10     -0.3115    
    118      1     34     10     -0.3115    
    119      1     35     10     -0.3115    
    120      1     36     10     -0.3115    
    121      1     37     10     -0.3115    
    122      1     38     10     -0.3115    
    123      1     39     10     -0.3115    
    124      1     40     10     -0.2859E-01
    125      1     41     10     -0.2859E-01
    126      1     42     10     -0.5719    
    127      1     43     10     -0.2859    
    128      1     44     10     -0.2859    
    129      1     45     10     -0.2859E-01
    130      1     46     10     -0.2859E-01
    131      1     25     11     -0.3115    
    132      1     26     11     -0.3115    
    133      1     27     11     -0.3115    
    134      1     28     11     -0.3115    
    135      1     29     11     -0.3115E-01
    136      1     30     11     -0.3115E-01
    137      1     31     11     -0.6230E-01
    138      1     32     11     -0.3115    
    139      1     33     11     -0.3115    
    140      1     34     11     -0.3115    
    141      1     35     11     -0.3115    
    142      1     36     11     -0.3115    
    143      1     37     11     -0.3115    
    144      1     38     11     -0.3115E-01
    145      1     39     11     -0.3115E-01
    146      1     40     11     -0.2859E-01
    147      1     41     11     -0.2859E-01
    148      1     42     11     -0.3812E-01
    149      1     43     11      -17.70    
    150      1     44     11      -17.70    
    151      1     45     11      -41.86    
    152      1     46     11      -41.86    
    153      1     47     11     -0.2859E-01
    154      1     48     11     -0.2859E-01
    155      1     25     12     -0.3115    
    156      1     26     12     -0.3115    
    157      1     27     12     -0.3115    
    158      1     28     12     -0.3115    
    159      1     29     12     -0.3115E-01
    160      1     30     12     -0.3115E-01
    161      1     31     12     -0.6230E-01
    162      1     32     12     -0.3115    
    163      1     33     12     -0.3115    
    164      1     34     12     -0.3115    
    165      1     35     12     -0.3115    
    166      1     36     12     -0.3115    
    167      1     37     12     -0.3115    
    168      1     38     12     -0.3115E-01
    169      1     39     12     -0.3115E-01
    170      1     40     12     -0.2859E-01
    171      1     41     12     -0.2859E-01
    172      1     42     12     -0.3812E-01
    173      1     43     12     -0.3812E-01
    174      1     44     12      -17.70    
    175      1     45     12      -41.86    
    176      1     46     12      -41.86    
    177      1     47     12     -0.2859E-01
    178      1     48     12     -0.2859E-01
    179      1     23     13     -0.3007    
    180      1     24     13     -0.3007    
    181      1     25     13     -0.3007    
    182      1     26     13     -0.3007    
    183      1     27     13     -0.3007    
    184      1     28     13     -0.3007    
    185      1     29     13     -0.3007E-01
    186      1     30     13     -0.3007E-01
    187      1     31     13     -0.6013    
    188      1     32     13     -0.3007    
    189      1     33     13     -0.3007    
    190      1     34     13     -0.3007    
    191      1     35     13     -0.3007    
    192      1     36     13     -0.3007E-01
    193      1     37     13     -0.3007E-01
    194      1     38     13     -0.3007    
    195      1     39     13     -0.3007    
    196      1     40     13     -0.2932    
    197      1     41     13     -0.2932    
    198      1     42     13     -0.2932E-01
    199      1     43     13     -0.2932E-01
    200      1     44     13      -23.62    
    201      1     45     13      -13.55    
    202      1     46     13      -13.55    
    203      1     47     13     -0.2932    
    204      1     48     13     -0.2932    
    205      1     49     13     -0.2932E-01
    206      1     50     13     -0.2932E-01
    207      1     23     14     -0.3007    
    208      1     24     14     -0.3007    
    209      1     25     14     -0.3007    
    210      1     26     14     -0.3007    
    211      1     27     14     -0.3007    
    212      1     28     14     -0.3007    
    213      1     29     14     -0.3007E-01
    214      1     30     14     -0.3007E-01
    215      1     31     14     -0.6013    
    216      1     32     14     -0.3007    
    217      1     33     14     -0.3007    
    218      1     34     14     -0.3007    
    219      1     35     14     -0.3007    
    220      1     36     14     -0.3007E-01
    221      1     37     14     -0.3007E-01
    222      1     38     14     -0.3007    
    223      1     39     14     -0.3007    
    224      1     40     14     -0.2932    
    225      1     41     14     -0.2932    
    226      1     42     14     -0.2932E-01
    227      1     43     14     -0.2932E-01
    228      1     44     14      -23.62    
    229      1     45     14      -13.55    
    230      1     46     14      -13.55    
    231      1     47     14     -0.2932    
    232      1     48     14     -0.2932    
    233      1     49     14     -0.2932E-01
    234      1     50     14     -0.2932E-01
    235      1     21     15     -0.3007    
    236      1     22     15     -0.3007    
    237      1     23     15     -0.3007E-01
    238      1     24     15     -0.3007E-01
    239      1     25     15     -0.3007E-01
    240      1     26     15     -0.3007E-01
    241      1     27     15     -0.3007    
    242      1     28     15     -0.3007    
    243      1     29     15     -0.3007E-01
    244      1     30     15     -0.3007E-01
    245      1     31     15     -0.6013    
    246      1     32     15     -0.3007    
    247      1     33     15     -0.3007    
    248      1     34     15     -0.3007    
    249      1     35     15     -0.3007    
    250      1     36     15     -0.3007    
    251      1     37     15     -0.3007    
    252      1     38     15     -0.6013E-01
    253      1     39     15     -0.6013E-01
    254      1     40     15     -0.5865E-01
    255      1     41     15     -0.5865E-01
    256      1     42     15     -0.5865    
    257      1     43     15     -0.5865    
    258      1     44     15      -652.1    
    259      1     45     15     -0.5865E-01
    260      1     46     15     -0.5865E-01
    261      1     47     15     -0.5865    
    262      1     48     15     -0.5865    
    263      1     49     15     -0.5865E-01
    264      1     50     15     -0.5865E-01
    265      1     51     15      -83.97    
    266      1     52     15      -83.97    
    267      1     21     16     -0.3007    
    268      1     22     16     -0.3007    
    269      1     23     16     -0.3007E-01
    270      1     24     16     -0.3007E-01
    271      1     25     16     -0.3007E-01
    272      1     26     16     -0.3007E-01
    273      1     27     16     -0.3007    
    274      1     28     16     -0.3007    
    275      1     29     16     -0.3007E-01
    276      1     30     16     -0.3007E-01
    277      1     31     16     -0.6013    
    278      1     32     16     -0.3007    
    279      1     33     16     -0.3007    
    280      1     34     16     -0.3007    
    281      1     35     16     -0.3007    
    282      1     36     16     -0.3007    
    283      1     37     16     -0.3007    
    284      1     38     16     -0.3007    
    285      1     39     16     -0.3007    
    286      1     40     16     -0.1349    
    287      1     41     16     -0.1349    
    288      1     42     16     -0.2932E-01
    289      1     43     16     -0.2932E-01
    290      1     44     16      -33.61    
    291      1     45     16     -0.2932E-01
    292      1     46     16     -0.2932E-01
    293      1     47     16     -0.2932    
    294      1     48     16     -0.2932    
    295      1     49     16     -0.2932E-01
    296      1     50     16     -0.2932E-01
    297      1     51     16      -4.120    
    298      1     52     16      -4.120    
    299      1     21     17     -0.6013    
    300      1     22     17     -0.6013    
    301      1     23     17     -0.6013    
    302      1     24     17     -0.6013    
    303      1     25     17     -0.6013E-01
    304      1     26     17     -0.6013E-01
    305      1     27     17     -0.6013    
    306      1     28     17     -0.6013    
    307      1     29     17     -0.6013E-01
    308      1     30     17     -0.6013E-01
    309      1     31     17     -0.1203    
    310      1     32     17     -0.6013E-01
    311      1     33     17     -0.6013E-01
    312      1     34     17     -0.6013    
    313      1     35     17     -0.6013    
    314      1     36     17     -0.6013    
    315      1     37     17     -0.6013    
    316      1     38     17     -0.3007    
    317      1     39     17     -0.3007    
    318      1     40     17     -0.1349    
    319      1     41     17     -0.1349    
    320      1     42     17     -0.2932E-01
    321      1     43     17     -0.2932E-01
    322      1     44     17      -33.61    
    323      1     45     17     -0.2932E-01
    324      1     46     17     -0.2932E-01
    325      1     47     17     -0.2932    
    326      1     48     17     -0.2932    
    327      1     49     17     -0.2932E-01
    328      1     50     17     -0.2932E-01
    329      1     51     17      -4.120    
    330      1     52     17      -4.120    
    331      1     21     18     -0.3007    
    332      1     22     18     -0.3007    
    333      1     23     18     -0.3007E-01
    334      1     24     18     -0.3007E-01
    335      1     25     18     -0.3007E-01
    336      1     26     18     -0.3007E-01
    337      1     27     18     -0.3007E-01
    338      1     28     18     -0.3007E-01
    339      1     29     18     -0.3007E-01
    340      1     30     18     -0.3007E-01
    341      1     31     18     -0.4931    
    342      1     32     18     -0.3007    
    343      1     33     18     -0.3007    
    344      1     34     18     -0.3007    
    345      1     35     18     -0.3007    
    346      1     36     18     -0.3007    
    347      1     37     18     -0.3007    
    348      1     38     18     -0.3007    
    349      1     39     18     -0.3007    
    350      1     40     18     -0.2932E-01
    351      1     41     18     -0.2932E-01
    352      1     42     18     -0.2932    
    353      1     43     18     -0.2932    
    354      1     44     18     -0.5865E-01
    355      1     45     18     -0.2932E-01
    356      1     46     18     -0.2932E-01
    357      1     47     18     -0.2932    
    358      1     48     18     -0.2932    
    359      1     49     18      -114.9    
    360      1     50     18      -114.9    
    361      1     51     18     -0.2932E-01
    362      1     52     18     -0.2932E-01
    363      1     21     19     -0.3007    
    364      1     22     19     -0.3007    
    365      1     23     19     -0.3007E-01
    366      1     24     19     -0.3007E-01
    367      1     25     19     -0.3007E-01
    368      1     26     19     -0.3007E-01
    369      1     27     19     -0.3007E-01
    370      1     28     19     -0.3007E-01
    371      1     29     19     -0.3007E-01
    372      1     30     19     -0.3007E-01
    373      1     31     19     -0.4931    
    374      1     32     19     -0.3007    
    375      1     33     19     -0.3007    
    376      1     34     19     -0.3007    
    377      1     35     19     -0.3007    
    378      1     36     19     -0.3007    
    379      1     37     19     -0.3007    
    380      1     38     19     -0.3007    
    381      1     39     19     -0.3007    
    382      1     40     19     -0.2932E-01
    383      1     41     19     -0.2932E-01
    384      1     42     19     -0.2932    
    385      1     43     19     -0.2932    
    386      1     44     19     -0.5865E-01
    387      1     45     19     -0.2932E-01
    388      1     46     19     -0.2932E-01
    389      1     47     19     -0.2932    
    390      1     48     19     -0.2932    
    391      1     49     19      -114.9    
    392      1     50     19      -114.9    
    393      1     51     19     -0.2932E-01
    394      1     52     19     -0.2932E-01
    395      1     21     20     -0.3007    
    396      1     22     20     -0.3007    
    397      1     23     20     -0.3007    
    398      1     24     20     -0.3007    
    399      1     25     20     -0.3007E-01
    400      1     26     20     -0.3007E-01
    401      1     27     20     -0.3007E-01
    402      1     28     20     -0.3007E-01
    403      1     29     20     -0.3007E-01
    404      1     30     20     -0.3007E-01
    405      1     31     20     -0.4009    
    406      1     32     20     -0.4009    
    407      1     33     20     -0.4009    
    408      1     34     20     -0.3007    
    409      1     35     20     -0.3007    
    410      1     36     20     -0.3007    
    411      1     37     20     -0.3007    
    412      1     38     20     -0.3007    
    413      1     39     20     -0.3007    
    414      1     40     20     -0.2932    
    415      1     41     20     -0.2932    
    416      1     42     20     -0.2932E-01
    417      1     43     20     -0.2932E-01
    418      1     44     20     -0.5865E-01
    419      1     45     20     -0.2932E-01
    420      1     46     20     -0.2932E-01
    421      1     47     20     -0.2932    
    422      1     48     20     -0.2932    
    423      1     49     20     -0.2932    
    424      1     50     20     -0.2932    
    425      1     51     20     -0.2932E-01
    426      1     52     20     -0.2932E-01
    427      1     53     20     -0.2932    
    428      1     54     20     -0.2932    
    429      1     73     20     -0.2839    
    430      1     74     20     -0.2839    
    431      1     21     21     -0.3007    
    432      1     22     21     -0.3007    
    433      1     23     21     -0.3007    
    434      1     24     21     -0.3007    
    435      1     25     21     -0.3007E-01
    436      1     26     21     -0.3007E-01
    437      1     27     21     -0.3007E-01
    438      1     28     21     -0.3007E-01
    439      1     29     21     -0.3007E-01
    440      1     30     21     -0.3007E-01
    441      1     31     21     -0.4009    
    442      1     32     21     -0.4009    
    443      1     33     21     -0.4009    
    444      1     34     21     -0.3007    
    445      1     35     21     -0.3007    
    446      1     36     21     -0.3007    
    447      1     37     21     -0.3007    
    448      1     38     21     -0.3007    
    449      1     39     21     -0.3007    
    450      1     40     21     -0.2932    
    451      1     41     21     -0.2932    
    452      1     42     21     -0.2932E-01
    453      1     43     21     -0.2932E-01
    454      1     44     21     -0.5865E-01
    455      1     45     21     -0.2932E-01
    456      1     46     21     -0.2932E-01
    457      1     47     21     -0.2932    
    458      1     48     21     -0.2932    
    459      1     49     21     -0.2932    
    460      1     50     21     -0.2932    
    461      1     51     21     -0.2932E-01
    462      1     52     21     -0.2932E-01
    463      1     53     21     -0.2932    
    464      1     54     21     -0.2932    
    465      1     73     21     -0.2839    
    466      1     74     21     -0.2839    
    467      1     76     21     -0.3785    
    468      1     77     21     -0.2660    
    469      1     78     21     -0.2660    
    470      1     79     21     -0.5321    
    471      1     80     21     -0.2660E-01
    472      1     81     21     -0.2660E-01
    473      1     21     22     -0.3007    
    474      1     22     22     -0.3007    
    475      1     23     22     -0.3007E-01
    476      1     24     22     -0.3007E-01
    477      1     25     22     -0.3007E-01
    478      1     26     22     -0.3007E-01
    479      1     27     22     -0.3007E-01
    480      1     28     22     -0.3007E-01
    481      1     29     22     -0.3007    
    482      1     30     22     -0.3007    
    483      1     31     22     -0.3007    
    484      1     32     22     -0.3007    
    485      1     33     22     -0.6013    
    486      1     34     22     -0.3007    
    487      1     35     22     -0.3007    
    488      1     36     22     -0.3007E-01
    489      1     37     22     -0.3007E-01
    490      1     38     22     -0.3007    
    491      1     39     22     -0.3007    
    492      1     40     22     -0.2932    
    493      1     41     22     -0.2932    
    494      1     42     22     -0.2932E-01
    495      1     43     22     -0.2932E-01
    496      1     44     22      -672.0    
    497      1     45     22     -0.5865E-01
    498      1     46     22     -0.5865E-01
    499      1     47     22     -0.5865    
    500      1     48     22     -0.5865    
    501      1     49     22     -0.5865    
    502      1     50     22     -0.5865    
    503      1     51     22     -0.5865E-01
    504      1     52     22     -0.5865E-01
    505      1     53     22     -0.5865    
    506      1     54     22     -0.5865    
    507      1     71     22     -0.5678    
    508      1     72     22     -0.5678    
    509      1     73     22     -0.5678E-01
    510      1     74     22     -0.5678E-01
    511      1     75     22     -0.3785    
    512      1     76     22     -0.3785    
    513      1     77     22     -0.2660    
    514      1     78     22     -0.2660    
    515      1     79     22     -0.5321    
    516      1     80     22     -0.2660E-01
    517      1     81     22     -0.2660E-01
    518      1     21     23     -0.3007    
    519      1     22     23     -0.3007    
    520      1     23     23     -0.3007E-01
    521      1     24     23     -0.3007E-01
    522      1     25     23     -0.3007E-01
    523      1     26     23     -0.3007E-01
    524      1     27     23     -0.3007E-01
    525      1     28     23     -0.3007E-01
    526      1     29     23     -0.3007    
    527      1     30     23     -0.3007    
    528      1     31     23     -0.3007    
    529      1     32     23     -0.3007    
    530      1     33     23     -0.6013    
    531      1     34     23     -0.3007    
    532      1     35     23     -0.3007    
    533      1     36     23     -0.3007E-01
    534      1     37     23     -0.3007E-01
    535      1     38     23     -0.3007    
    536      1     39     23     -0.3007    
    537      1     40     23     -0.2932    
    538      1     41     23     -0.2932    
    539      1     42     23     -0.2932E-01
    540      1     43     23     -0.2932E-01
    541      1     44     23     -0.5865E-01
    542      1     45     23     -0.3708    
    543      1     46     23     -0.3708    
    544      1     47     23      -20.51    
    545      1     48     23      -20.51    
    546      1     49     23     -0.2932    
    547      1     50     23     -0.2932    
    548      1     51     23     -0.2932    
    549      1     52     23     -0.2932    
    550      1     53     23     -0.2932E-01
    551      1     54     23     -0.2932E-01
    552      1     71     23     -0.2839    
    553      1     72     23     -0.2839    
    554      1     73     23     -0.2839E-01
    555      1     74     23     -0.2839E-01
    556      1     75     23     -0.2839    
    557      1     76     23     -0.2839    
    558      1     77     23     -0.2660    
    559      1     78     23     -0.2660    
    560      1     79     23     -0.5321E-01
    561      1     80     23     -0.2660    
    562      1     81     23     -0.2660    
    563      1     82     23     -0.2660    
    564      1     83     23     -0.2660    
    565      1     21     24     -0.6013    
    566      1     22     24     -0.6013    
    567      1     23     24     -0.6013    
    568      1     24     24     -0.6013    
    569      1     25     24     -0.6013    
    570      1     26     24     -0.6013    
    571      1     27     24     -0.6013E-01
    572      1     28     24     -0.6013E-01
    573      1     29     24      -1666.    
    574      1     30     24      -1666.    
    575      1     31     24     -0.6013    
    576      1     32     24     -0.6013    
    577      1     33     24      -1.203    
    578      1     34     24     -0.6013    
    579      1     35     24     -0.6013    
    580      1     36     24     -0.6013E-01
    581      1     37     24     -0.6013E-01
    582      1     38     24     -0.6013    
    583      1     39     24     -0.6013    
    584      1     40     24     -0.5865    
    585      1     41     24     -0.5865    
    586      1     42     24     -0.5865    
    587      1     43     24     -0.5865    
    588      1     44     24     -0.5865E-01
    589      1     45     24     -0.3708    
    590      1     46     24     -0.3708    
    591      1     47     24      -20.51    
    592      1     48     24      -20.51    
    593      1     49     24     -0.2932    
    594      1     50     24     -0.2932    
    595      1     51     24     -0.2932    
    596      1     52     24     -0.2932    
    597      1     53     24     -0.2932E-01
    598      1     54     24     -0.2932E-01
    599      1     71     24     -0.2839    
    600      1     72     24     -0.2839    
    601      1     73     24     -0.2839E-01
    602      1     74     24     -0.2839E-01
    603      1     75     24     -0.2839    
    604      1     76     24     -0.2839    
    605      1     77     24     -0.2660    
    606      1     78     24     -0.2660    
    607      1     79     24     -0.5321E-01
    608      1     80     24     -0.2660    
    609      1     81     24     -0.2660    
    610      1     82     24     -0.2660    
    611      1     83     24     -0.2660    
    612      1     21     25     -0.3007    
    613      1     22     25     -0.3007    
    614      1     23     25     -0.3007    
    615      1     24     25     -0.3007    
    616      1     25     25     -0.3007    
    617      1     26     25     -0.3007    
    618      1     27     25     -0.3007E-01
    619      1     28     25     -0.3007E-01
    620      1     29     25     -0.3007    
    621      1     30     25     -0.3007    
    622      1     31     25     -0.3007    
    623      1     32     25     -0.3007    
    624      1     33     25     -0.6013    
    625      1     34     25     -0.3007    
    626      1     35     25     -0.3007    
    627      1     36     25     -0.3007    
    628      1     37     25     -0.3007    
    629      1     38     25     -0.3007E-01
    630      1     39     25     -0.3007E-01
    631      1     40     25     -0.2932    
    632      1     41     25     -0.2932    
    633      1     42     25     -0.2932E-01
    634      1     43     25     -0.2932E-01
    635      1     44     25     -0.5865    
    636      1     45     25     -0.1981    
    637      1     46     25     -0.1981    
    638      1     47     25      -1.678    
    639      1     48     25      -1.678    
    640      1     49     25     -0.2932    
    641      1     50     25     -0.2932    
    642      1     51     25     -0.2932    
    643      1     52     25     -0.2932    
    644      1     53     25     -0.9984    
    645      1     54     25     -0.9984    
    646      1     55     25     -0.2932    
    647      1     56     25     -0.2932    
    648      1     69     25     -0.2839    
    649      1     70     25     -0.2839    
    650      1     71     25     -0.2839    
    651      1     72     25     -0.2839    
    652      1     73     25     -0.2839E-01
    653      1     74     25     -0.2839E-01
    654      1     75     25     -0.2839    
    655      1     76     25     -0.2839    
    656      1     77     25     -0.2660E-01
    657      1     78     25     -0.2660E-01
    658      1     79     25     -0.3547E-01
    659      1     80     25     -0.3547    
    660      1     81     25     -0.3547    
    661      1     82     25     -0.2660E-01
    662      1     83     25     -0.2660E-01
    663      1     21     26     -0.3007    
    664      1     22     26     -0.3007    
    665      1     23     26     -0.3007    
    666      1     24     26     -0.3007    
    667      1     25     26     -0.3007    
    668      1     26     26     -0.3007    
    669      1     27     26     -0.3007E-01
    670      1     28     26     -0.3007E-01
    671      1     29     26     -0.3007    
    672      1     30     26     -0.3007    
    673      1     31     26     -0.3007    
    674      1     32     26     -0.3007    
    675      1     33     26     -0.6013    
    676      1     34     26     -0.3007    
    677      1     35     26     -0.3007    
    678      1     36     26     -0.3007    
    679      1     37     26     -0.3007    
    680      1     38     26     -0.3007E-01
    681      1     39     26     -0.3007E-01
    682      1     40     26     -0.2932    
    683      1     41     26     -0.2932    
    684      1     42     26     -0.2932E-01
    685      1     43     26     -0.2932E-01
    686      1     44     26     -0.5865    
    687      1     45     26     -0.1981    
    688      1     46     26     -0.1981    
    689      1     47     26      -1.678    
    690      1     48     26      -1.678    
    691      1     49     26     -0.2932    
    692      1     50     26     -0.2932    
    693      1     51     26     -0.2932    
    694      1     52     26     -0.2932    
    695      1     53     26     -0.9984    
    696      1     54     26     -0.9984    
    697      1     55     26     -0.2932    
    698      1     56     26     -0.2932    
    699      1     69     26     -0.2839    
    700      1     70     26     -0.2839    
    701      1     71     26     -0.2839    
    702      1     72     26     -0.2839    
    703      1     73     26     -0.2839E-01
    704      1     74     26     -0.2839E-01
    705      1     75     26     -0.2839    
    706      1     76     26     -0.2839    
    707      1     77     26     -0.2660E-01
    708      1     78     26     -0.2660E-01
    709      1     79     26     -0.3547E-01
    710      1     80     26     -0.3547E-01
    711      1     81     26     -0.3547    
    712      1     82     26     -0.2660E-01
    713      1     83     26     -0.2660E-01
    714      1     20     27     -0.5508    
    715      1     21     27     -0.3007E-01
    716      1     22     27     -0.3007E-01
    717      1     23     27     -0.3007E-01
    718      1     24     27     -0.3007E-01
    719      1     25     27     -0.3007    
    720      1     26     27     -0.3007    
    721      1     27     27     -0.3007E-01
    722      1     28     27     -0.3007E-01
    723      1     29     27     -0.3007    
    724      1     30     27     -0.3007    
    725      1     31     27     -0.3007    
    726      1     32     27     -0.3007    
    727      1     33     27     -0.6013    
    728      1     34     27     -0.3007    
    729      1     35     27     -0.3007    
    730      1     36     27     -0.3007    
    731      1     37     27     -0.3007    
    732      1     38     27     -0.3007E-01
    733      1     39     27     -0.3007E-01
    734      1     40     27     -0.2932    
    735      1     41     27     -0.2932    
    736      1     42     27     -0.2932    
    737      1     43     27     -0.2932    
    738      1     44     27     -0.5865E-01
    739      1     45     27     -0.2932    
    740      1     46     27     -0.2932    
    741      1     47     27     -0.2932    
    742      1     48     27     -0.2932    
    743      1     49     27     -0.2932E-01
    744      1     50     27     -0.2932E-01
    745      1     51     27     -0.2932E-01
    746      1     52     27     -0.2932E-01
    747      1     53     27     -0.2932E-01
    748      1     54     27     -0.2932E-01
    749      1     55     27     -0.2932    
    750      1     56     27     -0.2932    
    751      1     66     27     -0.2839    
    752      1     67     27     -0.2839    
    753      1     68     27     -0.5678    
    754      1     69     27     -0.2839E-01
    755      1     70     27     -0.2839E-01
    756      1     71     27     -0.2839E-01
    757      1     72     27     -0.2839E-01
    758      1     73     27     -0.2839E-01
    759      1     74     27     -0.2839E-01
    760      1     75     27     -0.2839E-01
    761      1     76     27     -0.2839E-01
    762      1     77     27     -0.2660E-01
    763      1     78     27     -0.2660E-01
    764      1     79     27     -0.2660E-01
    765      1     80     27     -0.2660E-01
    766      1     81     27     -0.5321E-01
    767      1     82     27     -0.2660    
    768      1     83     27     -0.2660    
    769      1     84     27     -0.5321    
    770      1     85     27     -0.5321    
    771      1     20     28     -0.5508    
    772      1     21     28     -0.3007E-01
    773      1     22     28     -0.3007E-01
    774      1     23     28     -0.3007E-01
    775      1     24     28     -0.3007E-01
    776      1     25     28     -0.3007    
    777      1     26     28     -0.3007    
    778      1     27     28     -0.3007E-01
    779      1     28     28     -0.3007E-01
    780      1     29     28     -0.3007    
    781      1     30     28     -0.3007    
    782      1     31     28     -0.3007    
    783      1     32     28     -0.3007    
    784      1     33     28     -0.6013    
    785      1     34     28     -0.3007    
    786      1     35     28     -0.3007    
    787      1     36     28     -0.3007    
    788      1     37     28     -0.3007    
    789      1     38     28     -0.3007E-01
    790      1     39     28     -0.3007E-01
    791      1     40     28     -0.2932    
    792      1     41     28     -0.2932    
    793      1     42     28     -0.2932    
    794      1     43     28     -0.2932    
    795      1     44     28     -0.5865E-01
    796      1     45     28     -0.2932    
    797      1     46     28     -0.2932    
    798      1     47     28     -0.2932    
    799      1     48     28     -0.2932    
    800      1     49     28     -0.2932E-01
    801      1     50     28     -0.2932E-01
    802      1     51     28     -0.2932E-01
    803      1     52     28     -0.2932E-01
    804      1     53     28     -0.2932E-01
    805      1     54     28     -0.2932E-01
    806      1     55     28     -0.2932    
    807      1     56     28     -0.2932    
    808      1     66     28     -0.2839    
    809      1     67     28     -0.2839    
    810      1     68     28     -0.5678    
    811      1     69     28     -0.2839E-01
    812      1     70     28     -0.2839E-01
    813      1     71     28     -0.2839E-01
    814      1     72     28     -0.2839E-01
    815      1     73     28     -0.2839E-01
    816      1     74     28     -0.2839E-01
    817      1     75     28     -0.2839E-01
    818      1     76     28     -0.2839E-01
    819      1     77     28     -0.2660E-01
    820      1     78     28     -0.2660E-01
    821      1     79     28     -0.2660E-01
    822      1     80     28     -0.2660E-01
    823      1     81     28     -0.5321E-01
    824      1     82     28     -0.2660    
    825      1     83     28     -0.2660    
    826      1     84     28     -0.2660    
    827      1     85     28     -0.2660    
    828      1     86     28     -0.2660    
    829      1     87     28     -0.2660    
    830      1     20     29     -0.3672    
    831      1     21     29     -0.4009    
    832      1     22     29     -0.4009    
    833      1     23     29     -0.3007E-01
    834      1     24     29     -0.3007E-01
    835      1     25     29     -0.3007E-01
    836      1     26     29     -0.3007E-01
    837      1     27     29     -0.3007E-01
    838      1     28     29     -0.3007E-01
    839      1     29     29     -0.3007    
    840      1     30     29     -0.3007    
    841      1     31     29     -0.3007    
    842      1     32     29     -0.3007    
    843      1     33     29     -0.6013    
    844      1     34     29      -5.104    
    845      1     35     29      -5.104    
    846      1     36     29     -0.3007E-01
    847      1     37     29     -0.3007E-01
    848      1     38     29     -0.3007    
    849      1     39     29     -0.3007    
    850      1     40     29     -0.2932    
    851      1     41     29     -0.2932    
    852      1     42     29     -0.2932    
    853      1     43     29     -0.2932    
    854      1     44     29     -0.5865    
    855      1     45     29     -0.2932    
    856      1     46     29     -0.2932    
    857      1     47     29     -0.2932    
    858      1     48     29     -0.2932    
    859      1     49     29     -0.2932E-01
    860      1     50     29     -0.2932E-01
    861      1     51     29     -0.5865E-01
    862      1     52     29     -0.5865E-01
    863      1     53     29     -0.5865E-01
    864      1     54     29     -0.5865E-01
    865      1     55     29     -0.5865E-01
    866      1     56     29     -0.5865E-01
    867      1     66     29     -0.5678    
    868      1     67     29     -0.5678    
    869      1     68     29     -0.1136    
    870      1     69     29     -0.5678E-01
    871      1     70     29     -0.5678E-01
    872      1     71     29     -0.5678E-01
    873      1     72     29     -0.5678E-01
    874      1     73     29     -0.5678E-01
    875      1     74     29     -0.5678E-01
    876      1     75     29     -0.5678E-01
    877      1     76     29     -0.5678E-01
    878      1     77     29     -0.5321E-01
    879      1     78     29     -0.5321E-01
    880      1     79     29     -0.5321E-01
    881      1     80     29     -0.5321E-01
    882      1     81     29      -1.064    
    883      1     82     29     -0.5321    
    884      1     83     29     -0.5321    
    885      1     84     29     -0.2660    
    886      1     85     29     -0.2660    
    887      1     86     29     -0.2660    
    888      1     87     29     -0.2660    
    889      1     20     30     -0.3672    
    890      1     21     30     -0.3672    
    891      1     22     30     -0.4009    
    892      1     23     30     -0.3007E-01
    893      1     24     30     -0.3007E-01
    894      1     25     30     -0.3007E-01
    895      1     26     30     -0.3007E-01
    896      1     27     30     -0.3007E-01
    897      1     28     30     -0.3007E-01
    898      1     29     30     -0.3007    
    899      1     30     30     -0.3007    
    900      1     31     30     -0.3007    
    901      1     32     30     -0.3007    
    902      1     33     30     -0.6013    
    903      1     34     30      -5.104    
    904      1     35     30      -5.104    
    905      1     36     30     -0.3007E-01
    906      1     37     30     -0.3007E-01
    907      1     38     30     -0.3007    
    908      1     39     30     -0.3007    
    909      1     40     30     -0.2932    
    910      1     41     30     -0.2932    
    911      1     42     30     -0.2932    
    912      1     43     30     -0.2932    
    913      1     44     30     -0.5865    
    914      1     45     30     -0.2932    
    915      1     46     30     -0.2932    
    916      1     47     30     -0.2932    
    917      1     48     30     -0.2932    
    918      1     49     30     -0.2932E-01
    919      1     50     30     -0.2932E-01
    920      1     51     30     -0.2812E-01
    921      1     52     30     -0.2812E-01
    922      1     53     30     -0.2812E-01
    923      1     54     30     -0.2812E-01
    924      1     55     30     -0.2812E-01
    925      1     56     30     -0.2812E-01
    926      1     66     30     -0.2943    
    927      1     67     30     -0.2943    
    928      1     68     30     -0.5886    
    929      1     69     30     -0.2943E-01
    930      1     70     30     -0.2943E-01
    931      1     71     30     -0.2943E-01
    932      1     72     30     -0.2943E-01
    933      1     73     30     -0.2943E-01
    934      1     74     30     -0.2943E-01
    935      1     75     30     -0.2943E-01
    936      1     76     30     -0.2943E-01
    937      1     77     30     -0.3106    
    938      1     78     30     -0.3106    
    939      1     79     30     -0.3106    
    940      1     80     30     -0.3106    
    941      1     81     30     -0.6213    
    942      1     82     30     -0.3106    
    943      1     83     30     -0.3106    
    944      1     84     30     -0.3106E-01
    945      1     85     30     -0.3106E-01
    946      1     86     30     -0.3106    
    947      1     87     30     -0.3106    
    948      1     20     31     -0.4979    
    949      1     21     31     -0.4979    
    950      1     22     31     -0.7534    
    951      1     23     31     -0.3767E-01
    952      1     24     31     -0.3767E-01
    953      1     25     31     -0.3767E-01
    954      1     26     31     -0.3767E-01
    955      1     27     31     -0.3767    
    956      1     28     31     -0.3767    
    957      1     29     31     -0.3767E-01
    958      1     30     31     -0.3767E-01
    959      1     31     31     -0.3767    
    960      1     32     31     -0.3767    
    961      1     33     31     -0.7534    
    962      1     34     31     -0.3767E-01
    963      1     35     31     -0.3767E-01
    964      1     36     31     -0.3767E-01
    965      1     37     31     -0.3767E-01
    966      1     38     31     -0.3767    
    967      1     39     31     -0.3767    
    968      1     40     31     -0.5624    
    969      1     41     31     -0.5624    
    970      1     42     31     -0.5624    
    971      1     43     31     -0.5624    
    972      1     44     31      -1.125    
    973      1     45     31     -0.5624    
    974      1     46     31     -0.5624    
    975      1     47     31     -0.5624    
    976      1     48     31     -0.5624    
    977      1     49     31     -0.5624    
    978      1     50     31     -0.5624    
    979      1     51     31     -0.2812E-01
    980      1     52     31     -0.2812E-01
    981      1     53     31     -0.2812E-01
    982      1     54     31     -0.2812E-01
    983      1     55     31     -0.2812E-01
    984      1     56     31     -0.2812E-01
    985      1     66     31     -0.2943    
    986      1     67     31     -0.2943    
    987      1     68     31     -0.5886    
    988      1     69     31     -0.2943E-01
    989      1     70     31     -0.2943E-01
    990      1     71     31     -0.2943E-01
    991      1     72     31     -0.2943E-01
    992      1     73     31     -0.2943E-01
    993      1     74     31     -0.2943E-01
    994      1     75     31     -0.2943E-01
    995      1     76     31     -0.2943E-01
    996      1     77     31     -0.3106    
    997      1     78     31     -0.3106    
    998      1     79     31     -0.3106    
    999      1     80     31     -0.3106    
   1000      1     81     31     -0.6213    
   1001      1     82     31     -0.3106    
   1002      1     83     31     -0.3106    
   1003      1     84     31     -0.3106E-01
   1004      1     85     31     -0.3106E-01
   1005      1     86     31     -0.3106    
   1006      1     87     31     -0.3106    
   1007      1     22     32     -0.3767    
   1008      1     23     32     -0.1205    
   1009      1     24     32     -0.1205    
   1010      1     25     32     -0.1884    
   1011      1     26     32     -0.1884    
   1012      1     27     32     -0.1884E-01
   1013      1     28     32     -0.1884E-01
   1014      1     29     32     -0.1884E-01
   1015      1     30     32     -0.1884E-01
   1016      1     31     32     -0.1884    
   1017      1     32     32     -0.1884    
   1018      1     33     32     -0.3767    
   1019      1     34     32     -0.1884E-01
   1020      1     35     32     -0.1884E-01
   1021      1     36     32     -0.1884    
   1022      1     37     32     -0.1884    
   1023      1     38     32     -0.1884    
   1024      1     39     32     -0.1884    
   1025      1     40     32     -0.2812    
   1026      1     41     32     -0.2812    
   1027      1     42     32     -0.2812    
   1028      1     43     32     -0.2812    
   1029      1     44     32     -0.3749E-01
   1030      1     45     32     -0.3749    
   1031      1     46     32     -0.3749    
   1032      1     47     32     -0.2812    
   1033      1     48     32     -0.2812    
   1034      1     49     32     -0.2812    
   1035      1     50     32     -0.2812    
   1036      1     51     32     -0.2812E-01
   1037      1     52     32     -0.2812E-01
   1038      1     53     32     -0.2812E-01
   1039      1     54     32     -0.2812E-01
   1040      1     55     32     -0.2812E-01
   1041      1     56     32     -0.2812E-01
   1042      1     57     32     -0.5624    
   1043      1     66     32     -0.2943    
   1044      1     67     32     -0.2943    
   1045      1     68     32     -0.5886    
   1046      1     69     32     -0.2943E-01
   1047      1     70     32     -0.2943E-01
   1048      1     71     32     -0.2943E-01
   1049      1     72     32     -0.2943E-01
   1050      1     73     32     -0.2943E-01
   1051      1     74     32     -0.2943E-01
   1052      1     75     32     -0.2943    
   1053      1     76     32     -0.2943    
   1054      1     77     32     -0.3106E-01
   1055      1     78     32     -0.3106E-01
   1056      1     79     32     -0.3106E-01
   1057      1     80     32     -0.3106E-01
   1058      1     81     32     -0.6213E-01
   1059      1     82     32     -0.3106E-01
   1060      1     83     32     -0.3106E-01
   1061      1     84     32     -0.3106    
   1062      1     85     32     -0.3106    
   1063      1     86     32     -0.3106    
   1064      1     87     32     -0.3106    
   1065      1     22     33     -0.3767    
   1066      1     23     33     -0.1205    
   1067      1     24     33     -0.1205    
   1068      1     25     33     -0.1884    
   1069      1     26     33     -0.1884    
   1070      1     27     33     -0.1884E-01
   1071      1     28     33     -0.1884E-01
   1072      1     29     33     -0.1884E-01
   1073      1     30     33     -0.1884E-01
   1074      1     31     33     -0.1884    
   1075      1     32     33     -0.1884    
   1076      1     33     33     -0.3767    
   1077      1     34     33     -0.1884E-01
   1078      1     35     33     -0.1884E-01
   1079      1     36     33     -0.1884    
   1080      1     37     33     -0.1884    
   1081      1     38     33     -0.1884    
   1082      1     39     33     -0.1884    
   1083      1     40     33     -0.2812    
   1084      1     41     33     -0.2812    
   1085      1     42     33     -0.2812    
   1086      1     43     33     -0.2812    
   1087      1     44     33     -0.3749E-01
   1088      1     45     33     -0.3749E-01
   1089      1     46     33     -0.3749    
   1090      1     47     33     -0.2812    
   1091      1     48     33     -0.2812    
   1092      1     49     33     -0.2812    
   1093      1     50     33     -0.2812    
   1094      1     51     33     -0.2812E-01
   1095      1     52     33     -0.2812E-01
   1096      1     53     33     -0.2812E-01
   1097      1     54     33     -0.2812E-01
   1098      1     55     33     -0.2812E-01
   1099      1     56     33     -0.2812E-01
   1100      1     57     33     -0.5624    
   1101      1     66     33     -0.2943    
   1102      1     67     33     -0.2943    
   1103      1     68     33     -0.5886    
   1104      1     69     33     -0.2943E-01
   1105      1     70     33     -0.2943E-01
   1106      1     71     33     -0.2943E-01
   1107      1     72     33     -0.2943E-01
   1108      1     73     33     -0.2943E-01
   1109      1     74     33     -0.2943E-01
   1110      1     75     33     -0.2943    
   1111      1     76     33     -0.2943    
   1112      1     77     33     -0.3106E-01
   1113      1     78     33     -0.3106E-01
   1114      1     79     33     -0.3106E-01
   1115      1     80     33     -0.3106E-01
   1116      1     81     33     -0.6213E-01
   1117      1     82     33     -0.3106E-01
   1118      1     83     33     -0.3106E-01
   1119      1     84     33     -0.3106    
   1120      1     85     33     -0.3106    
   1121      1     86     33     -0.3106    
   1122      1     87     33     -0.3106    
   1123      1     23     34     -0.1884    
   1124      1     24     34     -0.1884    
   1125      1     25     34      -14.96    
   1126      1     26     34      -14.96    
   1127      1     27     34      -42.28    
   1128      1     28     34      -42.28    
   1129      1     29     34     -0.1884E-01
   1130      1     30     34     -0.1884E-01
   1131      1     31     34     -0.1545    
   1132      1     32     34     -0.1545    
   1133      1     33     34     -0.3767    
   1134      1     34     34     -0.1884E-01
   1135      1     35     34     -0.1884E-01
   1136      1     36     34     -0.1884    
   1137      1     37     34     -0.1884    
   1138      1     38     34     -0.1884    
   1139      1     39     34     -0.1884    
   1140      1     40     34     -0.2812    
   1141      1     41     34     -0.2812    
   1142      1     42     34     -0.2812    
   1143      1     43     34     -0.2812    
   1144      1     44     34     -0.2812    
   1145      1     45     34     -0.2812    
   1146      1     46     34     -0.5624E-01
   1147      1     47     34     -0.2812E-01
   1148      1     48     34     -0.2812E-01
   1149      1     49     34     -0.2812    
   1150      1     50     34     -0.2812    
   1151      1     51     34     -0.2812E-01
   1152      1     52     34     -0.2812E-01
   1153      1     53     34     -0.2812E-01
   1154      1     54     34     -0.2812E-01
   1155      1     55     34     -0.2812E-01
   1156      1     56     34     -0.2812E-01
   1157      1     57     34     -0.5624E-01
   1158      1     58     34     -0.2943E-01
   1159      1     59     34     -0.2943E-01
   1160      1     60     34     -0.2413    
   1161      1     61     34     -0.2413    
   1162      1     62     34     -0.2943    
   1163      1     63     34     -0.2943    
   1164      1     64     34     -0.2943    
   1165      1     65     34     -0.2943    
   1166      1     66     34     -0.2943    
   1167      1     67     34     -0.2943    
   1168      1     68     34     -0.5886E-01
   1169      1     69     34     -0.2943E-01
   1170      1     70     34     -0.2943E-01
   1171      1     71     34     -0.2943E-01
   1172      1     72     34     -0.2943E-01
   1173      1     73     34     -0.2943E-01
   1174      1     74     34     -0.2943E-01
   1175      1     75     34     -0.2943E-01
   1176      1     76     34     -0.2943E-01
   1177      1     77     34     -0.3106E-01
   1178      1     78     34     -0.3106E-01
   1179      1     79     34     -0.3106    
   1180      1     80     34     -0.3106    
   1181      1     81     34     -0.6213    
   1182      1     82     34     -0.3106    
   1183      1     83     34     -0.3106    
   1184      1     84     34     -0.3106    
   1185      1     85     34     -0.3106    
   1186      1     23     35     -0.1884    
   1187      1     24     35     -0.1884    
   1188      1     25     35      -14.96    
   1189      1     26     35      -14.96    
   1190      1     27     35      -42.28    
   1191      1     28     35      -42.28    
   1192      1     29     35     -0.1884E-01
   1193      1     30     35     -0.1884E-01
   1194      1     31     35     -0.1545    
   1195      1     32     35     -0.1545    
   1196      1     33     35     -0.3767    
   1197      1     34     35     -0.1884E-01
   1198      1     35     35     -0.1884E-01
   1199      1     36     35     -0.1884    
   1200      1     37     35     -0.1884    
   1201      1     38     35     -0.1884    
   1202      1     39     35     -0.1884    
   1203      1     40     35     -0.2812    
   1204      1     41     35     -0.2812    
   1205      1     42     35     -0.2812    
   1206      1     43     35     -0.2812    
   1207      1     44     35     -0.2812    
   1208      1     45     35     -0.2812    
   1209      1     46     35     -0.5624E-01
   1210      1     47     35     -0.2812E-01
   1211      1     48     35     -0.2812E-01
   1212      1     49     35     -0.2812    
   1213      1     50     35     -0.2812    
   1214      1     51     35     -0.2812E-01
   1215      1     52     35     -0.2812E-01
   1216      1     53     35     -0.2812E-01
   1217      1     54     35     -0.2812E-01
   1218      1     55     35     -0.2812E-01
   1219      1     56     35     -0.2812E-01
   1220      1     57     35     -0.5624E-01
   1221      1     58     35     -0.2943E-01
   1222      1     59     35     -0.2943E-01
   1223      1     60     35     -0.2413    
   1224      1     61     35     -0.2413    
   1225      1     62     35     -0.2943    
   1226      1     63     35     -0.2943    
   1227      1     64     35     -0.2943    
   1228      1     65     35     -0.2943    
   1229      1     66     35     -0.2943    
   1230      1     67     35     -0.2943    
   1231      1     68     35     -0.5886E-01
   1232      1     69     35     -0.2943E-01
   1233      1     70     35     -0.2943E-01
   1234      1     71     35     -0.2943E-01
   1235      1     72     35     -0.2943E-01
   1236      1     73     35     -0.2943E-01
   1237      1     74     35     -0.2943E-01
   1238      1     75     35     -0.2943E-01
   1239      1     76     35     -0.2943E-01
   1240      1     77     35     -0.3106E-01
   1241      1     78     35     -0.3106E-01
   1242      1     79     35     -0.3106    
   1243      1     80     35     -0.3106    
   1244      1     81     35     -0.6213    
   1245      1     82     35     -0.3106    
   1246      1     83     35     -0.3106    
   1247      1     84     35     -0.3106    
   1248      1     85     35     -0.3106    
   1249      1     23     36     -0.1884    
   1250      1     24     36     -0.1884    
   1251      1     25     36      -7.614    
   1252      1     26     36      -7.614    
   1253      1     27     36      -10.03    
   1254      1     28     36      -10.03    
   1255      1     29     36     -0.1884E-01
   1256      1     30     36     -0.1884E-01
   1257      1     31     36     -0.1884    
   1258      1     32     36     -0.1884    
   1259      1     33     36     -0.3767    
   1260      1     34     36     -0.1884E-01
   1261      1     35     36     -0.1884E-01
   1262      1     36     36     -0.1884    
   1263      1     37     36     -0.1884    
   1264      1     38     36     -0.1884    
   1265      1     39     36     -0.1884    
   1266      1     40     36     -0.2812    
   1267      1     41     36     -0.2812    
   1268      1     42     36     -0.2812    
   1269      1     43     36     -0.2812    
   1270      1     44     36     -0.2812    
   1271      1     45     36     -0.2812    
   1272      1     46     36     -0.5624    
   1273      1     47     36     -0.2812E-01
   1274      1     48     36     -0.2812E-01
   1275      1     49     36     -0.2812    
   1276      1     50     36     -0.2812    
   1277      1     51     36     -0.2812E-01
   1278      1     52     36     -0.2812E-01
   1279      1     53     36     -0.2812E-01
   1280      1     54     36     -0.2812E-01
   1281      1     55     36     -0.2812    
   1282      1     56     36     -0.2812    
   1283      1     57     36     -0.5624    
   1284      1     58     36     -0.5886    
   1285      1     59     36     -0.5886    
   1286      1     60     36     -0.5886    
   1287      1     61     36     -0.5886    
   1288      1     62     36     -0.5886    
   1289      1     63     36     -0.5886    
   1290      1     64     36     -0.5886    
   1291      1     65     36     -0.5886    
   1292      1     66     36     -0.5886    
   1293      1     67     36     -0.5886    
   1294      1     68     36     -0.5886    
   1295      1     69     36     -0.5886    
   1296      1     70     36     -0.1177    
   1297      1     71     36     -0.5886E-01
   1298      1     72     36     -0.5886E-01
   1299      1     73     36     -0.5886E-01
   1300      1     74     36     -0.5886E-01
   1301      1     75     36     -0.5886E-01
   1302      1     76     36     -0.5886E-01
   1303      1     77     36     -0.6213E-01
   1304      1     78     36     -0.6213E-01
   1305      1     79     36     -0.6213    
   1306      1     80     36     -0.6213    
   1307      1     81     36      -1.243    
   1308      1     82     36     -0.6213    
   1309      1     83     36     -0.6213    
   1310      1     23     37     -0.1884    
   1311      1     24     37     -0.1884    
   1312      1     25     37      -7.614    
   1313      1     26     37      -7.614    
   1314      1     27     37      -10.03    
   1315      1     28     37      -10.03    
   1316      1     29     37     -0.1884E-01
   1317      1     30     37     -0.1884E-01
   1318      1     31     37     -0.1884    
   1319      1     32     37     -0.1884    
   1320      1     33     37     -0.3767    
   1321      1     34     37     -0.1884E-01
   1322      1     35     37     -0.1884E-01
   1323      1     36     37     -0.1884    
   1324      1     37     37     -0.1884    
   1325      1     38     37     -0.1884    
   1326      1     39     37     -0.1884    
   1327      1     40     37     -0.2812    
   1328      1     41     37     -0.2812    
   1329      1     42     37     -0.2812    
   1330      1     43     37     -0.2812    
   1331      1     44     37     -0.2812    
   1332      1     45     37     -0.2812    
   1333      1     46     37     -0.5624    
   1334      1     47     37     -0.2812E-01
   1335      1     48     37     -0.2812E-01
   1336      1     49     37     -0.2812    
   1337      1     50     37     -0.2812    
   1338      1     51     37     -0.2812E-01
   1339      1     52     37     -0.2812E-01
   1340      1     53     37     -0.2812E-01
   1341      1     54     37     -0.2812E-01
   1342      1     55     37     -0.2812    
   1343      1     56     37     -0.2812    
   1344      1     57     37     -0.5624    
   1345      1     58     37     -0.2943    
   1346      1     59     37     -0.2943    
   1347      1     60     37     -0.2943    
   1348      1     61     37     -0.2943    
   1349      1     62     37     -0.2943    
   1350      1     63     37     -0.2943    
   1351      1     64     37     -0.2943E-01
   1352      1     65     37     -0.2943E-01
   1353      1     66     37     -0.2943E-01
   1354      1     67     37     -0.2943E-01
   1355      1     68     37     -0.2943    
   1356      1     69     37     -0.2943    
   1357      1     70     37     -0.5886    
   1358      1     71     37     -0.2943E-01
   1359      1     72     37     -0.2943E-01
   1360      1     73     37     -0.2943E-01
   1361      1     74     37     -0.2943E-01
   1362      1     75     37     -0.2943E-01
   1363      1     76     37     -0.2943E-01
   1364      1     77     37     -0.3106E-01
   1365      1     78     37     -0.3106E-01
   1366      1     79     37     -0.3106    
   1367      1     80     37     -0.3106    
   1368      1     81     37     -0.6213    
   1369      1     82     37     -0.3106    
   1370      1     83     37     -0.3106    
   1371      1     23     38     -0.1884    
   1372      1     24     38     -0.1884    
   1373      1     25     38     -0.3767    
   1374      1     26     38     -0.3767    
   1375      1     27     38     -0.3767    
   1376      1     28     38     -0.3767    
   1377      1     29     38     -0.3767E-01
   1378      1     30     38     -0.3767E-01
   1379      1     31     38     -0.3767E-01
   1380      1     32     38     -0.3767E-01
   1381      1     33     38     -0.7534    
   1382      1     34     38     -0.3767E-01
   1383      1     35     38     -0.3767E-01
   1384      1     36     38     -0.3767    
   1385      1     37     38     -0.3767    
   1386      1     38     38     -0.3767E-01
   1387      1     39     38     -0.3767E-01
   1388      1     40     38     -0.5624    
   1389      1     41     38     -0.5624    
   1390      1     42     38     -0.5624    
   1391      1     43     38     -0.5624    
   1392      1     44     38     -0.5624    
   1393      1     45     38     -0.5624    
   1394      1     46     38     -0.1125    
   1395      1     47     38     -0.5624E-01
   1396      1     48     38     -0.5624E-01
   1397      1     49     38     -0.5624E-01
   1398      1     50     38     -0.5624E-01
   1399      1     51     38     -0.5624E-01
   1400      1     52     38     -0.5624E-01
   1401      1     53     38     -0.5624    
   1402      1     54     38     -0.5624    
   1403      1     55     38     -0.5624    
   1404      1     56     38     -0.5624    
   1405      1     57     38      -1.125    
   1406      1     58     38     -0.2943    
   1407      1     59     38     -0.2943    
   1408      1     60     38     -0.2943    
   1409      1     61     38     -0.2943    
   1410      1     62     38     -0.2943    
   1411      1     63     38     -0.2943    
   1412      1     64     38     -0.2943E-01
   1413      1     65     38     -0.2943E-01
   1414      1     66     38     -0.2943E-01
   1415      1     67     38     -0.2943E-01
   1416      1     68     38     -0.2943    
   1417      1     69     38     -0.2943    
   1418      1     70     38     -0.5886    
   1419      1     71     38     -0.2943E-01
   1420      1     72     38     -0.2943E-01
   1421      1     73     38     -0.2943E-01
   1422      1     74     38     -0.2943E-01
   1423      1     75     38     -0.2943E-01
   1424      1     76     38     -0.2943E-01
   1425      1     77     38     -0.3106E-01
   1426      1     78     38     -0.3106E-01
   1427      1     79     38     -0.3106    
   1428      1     80     38     -0.3106    
   1429      1     81     38     -0.6213    
   1430      1     82     38     -0.3106    
   1431      1     83     38     -0.3106    
   1432      1     23     39     -0.1884    
   1433      1     24     39     -0.1884    
   1434      1     25     39     -0.1884    
   1435      1     26     39     -0.1884    
   1436      1     27     39     -0.1884    
   1437      1     28     39     -0.1884    
   1438      1     29     39     -0.1884E-01
   1439      1     30     39     -0.1884E-01
   1440      1     31     39     -0.1884E-01
   1441      1     32     39     -0.1884E-01
   1442      1     33     39     -0.3767    
   1443      1     34     39     -0.1884E-01
   1444      1     35     39     -0.1884E-01
   1445      1     36     39     -0.1884E-01
   1446      1     37     39     -0.1884E-01
   1447      1     38     39     -0.1884E-01
   1448      1     39     39     -0.1884E-01
   1449      1     40     39     -0.2812    
   1450      1     41     39     -0.2812    
   1451      1     42     39     -0.2812    
   1452      1     43     39     -0.2812    
   1453      1     44     39     -0.2812    
   1454      1     45     39     -0.2812    
   1455      1     46     39     -0.5624    
   1456      1     47     39     -0.2812E-01
   1457      1     48     39     -0.2812E-01
   1458      1     49     39     -0.2812E-01
   1459      1     50     39     -0.2812E-01
   1460      1     51     39     -0.2812E-01
   1461      1     52     39     -0.2812E-01
   1462      1     53     39     -0.2812    
   1463      1     54     39     -0.2812    
   1464      1     55     39     -0.2812E-01
   1465      1     56     39     -0.2812E-01
   1466      1     57     39     -0.5624    
   1467      1     58     39     -0.2943    
   1468      1     59     39     -0.2943    
   1469      1     60     39     -0.2943    
   1470      1     61     39     -0.2943    
   1471      1     62     39     -0.2943E-01
   1472      1     63     39     -0.2943E-01
   1473      1     64     39     -0.2943E-01
   1474      1     65     39     -0.2943E-01
   1475      1     66     39     -0.2943E-01
   1476      1     67     39     -0.2943E-01
   1477      1     68     39     -0.2943E-01
   1478      1     69     39     -0.2943E-01
   1479      1     70     39     -0.5886    
   1480      1     71     39     -0.2943E-01
   1481      1     72     39     -0.2943E-01
   1482      1     73     39     -0.2943E-01
   1483      1     74     39     -0.2943E-01
   1484      1     75     39     -0.2943E-01
   1485      1     76     39     -0.2943E-01
   1486      1     77     39     -0.3106E-01
   1487      1     78     39     -0.3106E-01
   1488      1     79     39     -0.3106E-01
   1489      1     80     39     -0.3106E-01
   1490      1     81     39     -0.6213    
   1491      1     82     39     -0.3106    
   1492      1     83     39     -0.3106    
   1493      1     23     40     -0.3767    
   1494      1     24     40     -0.3767    
   1495      1     25     40     -0.1884    
   1496      1     26     40     -0.1884    
   1497      1     27     40     -0.1884    
   1498      1     28     40     -0.1884    
   1499      1     29     40     -0.1884E-01
   1500      1     30     40     -0.1884E-01
   1501      1     31     40     -0.1884E-01
   1502      1     32     40     -0.1884E-01
   1503      1     33     40     -0.3767    
   1504      1     34     40     -0.1884E-01
   1505      1     35     40     -0.1884E-01
   1506      1     36     40     -0.1884E-01
   1507      1     37     40     -0.1884E-01
   1508      1     38     40     -0.1884E-01
   1509      1     39     40     -0.1884E-01
   1510      1     40     40     -0.2812    
   1511      1     41     40     -0.2812    
   1512      1     42     40     -0.2812    
   1513      1     43     40     -0.2812    
   1514      1     44     40     -0.2812    
   1515      1     45     40     -0.2812    
   1516      1     46     40     -0.5624    
   1517      1     47     40     -0.2812E-01
   1518      1     48     40     -0.2812E-01
   1519      1     49     40     -0.2812E-01
   1520      1     50     40     -0.2812E-01
   1521      1     51     40     -0.2812E-01
   1522      1     52     40     -0.2812E-01
   1523      1     53     40     -0.2812    
   1524      1     54     40     -0.2812    
   1525      1     55     40     -0.2812E-01
   1526      1     56     40     -0.2812E-01
   1527      1     57     40     -0.5624    
   1528      1     58     40     -0.2943    
   1529      1     59     40     -0.2943    
   1530      1     60     40     -0.2943    
   1531      1     61     40     -0.2943    
   1532      1     62     40     -0.2943E-01
   1533      1     63     40     -0.2943E-01
   1534      1     64     40     -0.2943E-01
   1535      1     65     40     -0.2943E-01
   1536      1     66     40     -0.2943E-01
   1537      1     67     40     -0.2943E-01
   1538      1     68     40     -0.2943E-01
   1539      1     69     40     -0.2943E-01
   1540      1     70     40     -0.5886    
   1541      1     71     40     -0.2943E-01
   1542      1     72     40     -0.2943E-01
   1543      1     73     40     -0.2943E-01
   1544      1     74     40     -0.2943E-01
   1545      1     75     40     -0.2943E-01
   1546      1     76     40     -0.2943E-01
   1547      1     77     40     -0.3106E-01
   1548      1     78     40     -0.3106E-01
   1549      1     79     40     -0.3106E-01
   1550      1     80     40     -0.3106E-01
   1551      1     81     40     -0.6213    
   1552      1     82     40     -0.3106    
   1553      1     83     40     -0.3106    
   1554      1     23     41     -0.1884    
   1555      1     24     41     -0.1884    
   1556      1     25     41     -0.1884E-01
   1557      1     26     41     -0.1884E-01
   1558      1     27     41     -0.1884E-01
   1559      1     28     41     -0.1884E-01
   1560      1     29     41      -38.19    
   1561      1     30     41      -38.19    
   1562      1     31     41     -0.1884E-01
   1563      1     32     41     -0.1884E-01
   1564      1     33     41      -23.90    
   1565      1     34     41      -2.806    
   1566      1     35     41      -2.806    
   1567      1     36     41     -0.1884    
   1568      1     37     41     -0.1884    
   1569      1     38     41     -0.1884    
   1570      1     39     41     -0.1884    
   1571      1     40     41     -0.2812    
   1572      1     41     41     -0.2812    
   1573      1     42     41     -0.2812    
   1574      1     43     41     -0.2812    
   1575      1     44     41     -0.2812    
   1576      1     45     41     -0.2812    
   1577      1     46     41     -0.5624    
   1578      1     47     41     -0.2812E-01
   1579      1     48     41     -0.2812E-01
   1580      1     49     41     -0.2812E-01
   1581      1     50     41     -0.2812E-01
   1582      1     51     41     -0.2812    
   1583      1     52     41     -0.2812    
   1584      1     53     41     -0.2812E-01
   1585      1     54     41     -0.2812E-01
   1586      1     55     41     -0.2812    
   1587      1     56     41     -0.2812    
   1588      1     57     41     -0.5624    
   1589      1     58     41     -0.2943    
   1590      1     59     41     -0.2943    
   1591      1     60     41     -0.2943    
   1592      1     61     41     -0.2943    
   1593      1     62     41     -0.2943    
   1594      1     63     41     -0.2943    
   1595      1     64     41     -0.2943E-01
   1596      1     65     41     -0.2943E-01
   1597      1     66     41     -0.2943    
   1598      1     67     41     -0.2943    
   1599      1     68     41     -0.2943E-01
   1600      1     69     41     -0.2943E-01
   1601      1     70     41     -0.5886    
   1602      1     71     41     -0.2943    
   1603      1     72     41     -0.2943    
   1604      1     73     41      -7.317    
   1605      1     74     41      -7.317    
   1606      1     75     41     -0.2943E-01
   1607      1     76     41     -0.2943E-01
   1608      1     77     41     -0.3106    
   1609      1     78     41     -0.3106    
   1610      1     79     41     -0.3106    
   1611      1     80     41     -0.3106    
   1612      1     81     41     -0.6213    
   1613      1     82     41     -0.3106    
   1614      1     83     41     -0.3106    
   1615      1     23     42     -0.1884    
[...]
  28532      1    108    258       2718.    
  28533      1    108    259       2718.    
  28534      1    108    260       2718.    
  28535      1    108    261       2718.    
  28536      1    109    241       2718.    
  28537      1    109    242       2718.    
  28538      1    109    243       2718.    
  28539      1    109    245       2718.    
  28540      1    109    247       2718.    
  28541      1    109    250       2718.    
  28542      1    109    252       2718.    
  28543      1    109    255       2718.    
  28544      1    109    258       2718.    
  28545      1    109    259       2718.    
  28546      1    109    260       2718.    
  28547      1    109    294       2718.    
  28548      1    109    339       2718.    
  28549      1    110    244       2718.    
  28550      1    110    245       2718.    
  28551      1    110    246       2718.    
  28552      1    110    249       2718.    
  28553      1    110    252       2718.    
  28554      1    110    255       2718.    
  28555      1    110    257       2718.    
  28556      1    110    295       2718.    
  28557      1    110    332       2718.    
  28558      1    110    333       2718.    
  28559      1    110    338       2718.    
  28560      1    111    246       2718.    
  28561      1    111    249       2718.    
  28562      1    111    252       2718.    
  28563      1    111    254       2718.    
  28564      1    111    256       2718.    
  28565      1    111    271       2718.    
  28566      1    111    285       2718.    
  28567      1    111    286       2718.    
  28568      1    111    295       2718.    
  28569      1    111    332       2718.    
  28570      1    111    338       2718.    
  28571      1    112    247       2718.    
  28572      1    112    249       2718.    
  28573      1    112    251       2718.    
  28574      1    112    252       2718.    
  28575      1    112    253       2718.    
  28576      1    112    254       2718.    
  28577      1    112    255       2718.    
  28578      1    112    271       2718.    
  28579      1    112    284       2718.    
  28580      1    112    285       2718.    
  28581      1    112    295       2718.    
  28582      1    112    333       2718.    
  28583      1    113    248       2718.    
  28584      1    113    249       2718.    
  28585      1    113    250       2718.    
  28586      1    113    255       2718.    
  28587      1    113    270       2718.    
  28588      1    113    277       2718.    
  28589      1    113    278       2718.    
  28590      1    113    283       2718.    
  28591      1    113    295       2718.    
  28592      1    113    298       2718.    
  28593      1    113    299       2718.    
  28594      1    113    322       2718.    
  28595      1    113    332       2718.    
  28596      1    114    254       2718.    
  28597      1    114    262       2718.    
  28598      1    114    263       2718.    
  28599      1    114    269       2718.    
  28600      1    114    270       2718.    
  28601      1    114    276       2718.    
  28602      1    114    283       2718.    
  28603      1    114    291       2718.    
  28604      1    114    296       2718.    
  28605      1    114    297       2718.    
  28606      1    114    298       2718.    
  28607      1    114    323       2718.    
  28608      1    114    333       2718.    
  28609      1    115    254       2718.    
  28610      1    115    261       2718.    
  28611      1    115    270       2718.    
  28612      1    115    275       2718.    
  28613      1    115    276       2718.    
  28614      1    115    283       2718.    
  28615      1    115    291       2718.    
  28616      1    115    297       2718.    
  28617      1    115    298       2718.    
  28618      1    115    304       2718.    
  28619      1    115    306       2718.    
  28620      1    115    323       2718.    
  28621      1    115    324       2718.    
  28622      1    115    333       2718.    
  28623      1    116    254       2718.    
  28624      1    116    255       2718.    
  28625      1    116    260       2718.    
  28626      1    116    261       2718.    
  28627      1    116    270       2718.    
  28628      1    116    271       2718.    
  28629      1    116    272       2718.    
  28630      1    116    273       2718.    
  28631      1    116    274       2718.    
  28632      1    116    283       2718.    
  28633      1    116    291       2718.    
  28634      1    116    298       2718.    
  28635      1    116    299       2718.    
  28636      1    116    304       2718.    
  28637      1    116    306       2718.    
  28638      1    116    325       2718.    
  28639      1    116    326       2718.    
  28640      1    117    255       2718.    
  28641      1    117    256       2718.    
  28642      1    117    257       2718.    
  28643      1    117    258       2718.    
  28644      1    117    259       2718.    
  28645      1    117    267       2718.    
  28646      1    117    268       2718.    
  28647      1    117    269       2718.    
  28648      1    117    282       2718.    
  28649      1    117    291       2718.    
  28650      1    117    299       2718.    
  28651      1    117    305       2718.    
  28652      1    117    306       2718.    
  28653      1    117    312       2718.    
  28654      1    117    313       2718.    
  28655      1    117    327       2718.    
  28656      1    118    256       2718.    
  28657      1    118    258       2718.    
  28658      1    118    267       2718.    
  28659      1    118    281       2718.    
  28660      1    118    282       2718.    
  28661      1    118    291       2718.    
  28662      1    118    298       2718.    
  28663      1    118    305       2718.    
  28664      1    118    312       2718.    
  28665      1    118    323       2718.    
  28666      1    118    327       2718.    
  28667      1    119    256       2718.    
  28668      1    119    257       2718.    
  28669      1    119    267       2718.    
  28670      1    119    281       2718.    
  28671      1    119    291       2718.    
  28672      1    119    298       2718.    
  28673      1    119    305       2718.    
  28674      1    119    312       2718.    
  28675      1    119    324       2718.    
  28676      1    119    327       2718.    
  28677      1    120    257       2718.    
  28678      1    120    260       2718.    
  28679      1    120    261       2718.    
  28680      1    120    262       2718.    
  28681      1    120    266       2718.    
  28682      1    120    267       2718.    
  28683      1    120    280       2718.    
  28684      1    120    291       2718.    
  28685      1    120    298       2718.    
  28686      1    120    300       2718.    
  28687      1    120    306       2718.    
  28688      1    120    312       2718.    
  28689      1    120    325       2718.    
  28690      1    120    326       2718.    
  28691      1    120    327       2718.    
  28692      1    121    257       2718.    
  28693      1    121    258       2718.    
  28694      1    121    259       2718.    
  28695      1    121    263       2718.    
  28696      1    121    264       2718.    
  28697      1    121    266       2718.    
  28698      1    121    270       2718.    
  28699      1    121    280       2718.    
  28700      1    121    291       2718.    
  28701      1    121    298       2718.    
  28702      1    121    299       2718.    
  28703      1    121    300       2718.    
  28704      1    121    305       2718.    
  28705      1    121    311       2718.    
  28706      1    121    312       2718.    
  28707      1    121    326       2718.    
  28708      1    121    327       2718.    
  28709      1    122    263       2718.    
  28710      1    122    265       2718.    
  28711      1    122    271       2718.    
  28712      1    122    272       2718.    
  28713      1    122    278       2718.    
  28714      1    122    279       2718.    
  28715      1    122    291       2718.    
  28716      1    122    298       2718.    
  28717      1    122    305       2718.    
  28718      1    122    311       2718.    
  28719      1    123    263       2718.    
  28720      1    123    273       2718.    
  28721      1    123    278       2718.    
  28722      1    123    291       2718.    
  28723      1    123    295       2718.    
  28724      1    123    299       2718.    
  28725      1    123    305       2718.    
  28726      1    123    310       2718.    
  28727      1    123    326       2718.    
  28728      1    124    264       2718.    
  28729      1    124    272       2718.    
  28730      1    124    274       2718.    
  28731      1    124    278       2718.    
  28732      1    124    291       2718.    
  28733      1    124    295       2718.    
  28734      1    124    300       2718.    
  28735      1    124    304       2718.    
  28736      1    124    310       2718.    
  28737      1    124    326       2718.    
  28738      1    125    265       2718.    
  28739      1    125    267       2718.    
  28740      1    125    268       2718.    
  28741      1    125    271       2718.    
  28742      1    125    274       2718.    
  28743      1    125    277       2718.    
  28744      1    125    291       2718.    
  28745      1    125    295       2718.    
  28746      1    125    300       2718.    
  28747      1    125    301       2718.    
  28748      1    125    302       2718.    
  28749      1    125    303       2718.    
  28750      1    125    304       2718.    
  28751      1    125    310       2718.    
  28752      1    125    325       2718.    
  28753      1    126    266       2718.    
  28754      1    126    267       2718.    
  28755      1    126    271       2718.    
  28756      1    126    274       2718.    
  28757      1    126    277       2718.    
  28758      1    126    291       2718.    
  28759      1    126    295       2718.    
  28760      1    126    300       2718.    
  28761      1    126    310       2718.    
  28762      1    126    312       2718.    
  28763      1    127    267       2718.    
  28764      1    127    271       2718.    
  28765      1    127    273       2718.    
  28766      1    127    277       2718.    
  28767      1    127    286       2718.    
  28768      1    127    290       2718.    
  28769      1    127    294       2718.    
  28770      1    127    299       2718.    
  28771      1    127    310       2718.    
  28772      1    127    311       2718.    
  28773      1    127    324       2718.    
  28774      1    128    267       2718.    
  28775      1    128    270       2718.    
  28776      1    128    271       2718.    
  28777      1    128    273       2718.    
  28778      1    128    276       2718.    
  28779      1    128    286       2718.    
  28780      1    128    287       2718.    
  28781      1    128    288       2718.    
  28782      1    128    290       2718.    
  28783      1    128    294       2718.    
  28784      1    128    299       2718.    
  28785      1    128    303       2718.    
  28786      1    128    309       2718.    
  28787      1    128    310       2718.    
  28788      1    128    311       2718.    
  28789      1    128    323       2718.    
  28790      1    129    268       2718.    
  28791      1    129    269       2718.    
  28792      1    129    271       2718.    
  28793      1    129    272       2718.    
  28794      1    129    273       2718.    
  28795      1    129    276       2718.    
  28796      1    129    277       2718.    
  28797      1    129    289       2718.    
  28798      1    129    290       2718.    
  28799      1    129    293       2718.    
  28800      1    129    299       2718.    
  28801      1    129    300       2718.    
  28802      1    129    301       2718.    
  28803      1    129    302       2718.    
  28804      1    129    305       2718.    
  28805      1    129    307       2718.    
  28806      1    129    308       2718.    
  28807      1    129    311       2718.    
  28808      1    130    273       2718.    
  28809      1    130    274       2718.    
  28810      1    130    276       2718.    
  28811      1    130    277       2718.    
  28812      1    130    288       2718.    
  28813      1    130    289       2718.    
  28814      1    130    290       2718.    
  28815      1    130    291       2718.    
  28816      1    130    292       2718.    
  28817      1    130    299       2718.    
  28818      1    130    303       2718.    
  28819      1    130    304       2718.    
  28820      1    130    305       2718.    
  28821      1    130    306       2718.    
  28822      1    130    310       2718.    
  28823      1    131    274       2718.    
  28824      1    131    277       2718.    
  28825      1    131    287       2718.    
  28826      1    131    289       2718.    
  28827      1    131    292       2718.    
  28828      1    131    293       2718.    
  28829      1    131    294       2718.    
  28830      1    131    299       2718.    
  28831      1    131    303       2718.    
  28832      1    131    310       2718.    
  28833      1    132    274       2718.    
  28834      1    132    276       2718.    
  28835      1    132    283       2718.    
  28836      1    132    288       2718.    
  28837      1    132    295       2718.    
  28838      1    132    296       2718.    
  28839      1    132    297       2718.    
  28840      1    132    299       2718.    
  28841      1    132    301       2718.    
  28842      1    132    302       2718.    
  28843      1    132    310       2718.    
  28844      1    133    275       2718.    
  28845      1    133    276       2718.    
  28846      1    133    283       2718.    
  28847      1    133    288       2718.    
  28848      1    133    297       2718.    
  28849      1    133    298       2718.    
  28850      1    133    300       2718.    
  28851      1    133    301       2718.    
  28852      1    133    304       2718.    
  28853      1    133    310       2718.    
  28854      1    133    317       2718.    
  28855      1    134    275       2718.    
  28856      1    134    276       2718.    
  28857      1    134    284       2718.    
  28858      1    134    289       2718.    
  28859      1    134    299       2718.    
  28860      1    134    300       2718.    
  28861      1    134    304       2718.    
  28862      1    134    310       2718.    
  28863      1    134    315       2718.    
  28864      1    134    316       2718.    
  28865      1    135    277       2718.    
  28866      1    135    278       2718.    
  28867      1    135    284       2718.    
  28868      1    135    288       2718.    
  28869      1    135    301       2718.    
  28870      1    135    302       2718.    
  28871      1    135    303       2718.    
  28872      1    135    305       2718.    
  28873      1    135    310       2718.    
  28874      1    135    313       2718.    
  28875      1    135    314       2718.    
  28876      1    136    279       2718.    
  28877      1    136    282       2718.    
  28878      1    136    285       2718.    
  28879      1    136    286       2718.    
  28880      1    136    287       2718.    
  28881      1    136    301       2718.    
  28882      1    136    304       2718.    
  28883      1    136    308       2718.    
  28884      1    136    309       2718.    
  28885      1    136    310       2718.    
  28886      1    136    312       2718.    
  28887      1    137    280       2718.    
  28888      1    137    282       2718.    
  28889      1    137    285       2718.    
  28890      1    137    302       2718.    
  28891      1    137    303       2718.    
  28892      1    137    306       2718.    
  28893      1    137    307       2718.    
  28894      1    137    309       2718.    
  28895      1    137    311       2718.    
  28896      1    138    281       2718.    
  28897      1    138    282       2718.    
  28898      1    138    284       2718.    
  28899      1    138    302       2718.    
  28900      1    138    307       2718.    
  28901      1    139    282       2718.    
  28902      1    139    283       2718.    
  28903      1    139    284       2718.    
  28904      1    139    302       2718.    
  28905      1    139    303       2718.    
  28906      1    139    305       2718.    
  28907      1    139    306       2718.    
  28908      1    140    302       2718.    
  28909      1    140    303       2718.    
  28910      1    140    304       2718.    
  28911      1    140    305       2718.    
  28912      1    140    306       2718.    
  28913      1    140    307       2718.    
  28914      1    141    302       2718.    

  28914 WELLS

  54036 DRAINS



                           RECHARGE
 READING ON UNIT   19 WITH FORMAT: (342E15.6)          
 
 SOLVING FOR HEAD 

    ------------------------------------------------
       NWT REQUIRED            4 OUTER ITERATIONS 
       AND A TOTAL OF          7 INNER ITERATIONS.
    ------------------------------------------------

 OUTPUT CONTROL FOR STRESS PERIOD    1   TIME STEP    1
    SAVE HEAD FOR ALL LAYERS

 HEAD WILL BE SAVED ON UNIT   51 AT END OF TIME STEP    1, STRESS PERIOD    1
1
  VOLUMETRIC BUDGET FOR ENTIRE MODEL AT END OF TIME STEP    1, STRESS PERIOD   1
  ------------------------------------------------------------------------------

     CUMULATIVE VOLUMES      L**3       RATES FOR THIS TIME STEP      L**3/T
     ------------------                 ------------------------

           IN:                                      IN:
           ---                                      ---
             STORAGE =    18583858.0000               STORAGE =    18583858.0000
       CONSTANT HEAD =           0.0000         CONSTANT HEAD =           0.0000
               WELLS =     4318155.0000                 WELLS =     4318155.0000
              DRAINS =           0.0000                DRAINS =           0.0000
            RECHARGE =    19469586.0000              RECHARGE =    19469586.0000

            TOTAL IN =    42371600.0000              TOTAL IN =    42371600.0000

          OUT:                                     OUT:
          ----                                     ----
             STORAGE =     6959439.5000               STORAGE =     6959439.5000
       CONSTANT HEAD =           0.0000         CONSTANT HEAD =           0.0000
               WELLS =     8908285.0000                 WELLS =     8908285.0000
              DRAINS =    26503866.0000                DRAINS =    26503866.0000
            RECHARGE =           0.0000              RECHARGE =           0.0000

           TOTAL OUT =    42371592.0000             TOTAL OUT =    42371592.0000

            IN - OUT =           8.0000              IN - OUT =           8.0000

 PERCENT DISCREPANCY =           0.00     PERCENT DISCREPANCY =           0.00






         TIME SUMMARY AT END OF TIME STEP    1 IN STRESS PERIOD    1
                    SECONDS     MINUTES      HOURS       DAYS        YEARS
                    -----------------------------------------------------------
   TIME STEP LENGTH  86400.      1440.0      24.000      1.0000     2.73785E-03
 STRESS PERIOD TIME  86400.      1440.0      24.000      1.0000     2.73785E-03
         TOTAL TIME  86400.      1440.0      24.000      1.0000     2.73785E-03
1

 Run end date and time (yyyy/mm/dd hh:mm:ss): 2020/06/22 21:38:08
 Elapsed run time:  0.501 Seconds

