                                  MODFLOW-NWT-SWR1 
      U.S. GEOLOGICAL SURVEY MODULAR FINITE-DIFFERENCE GROUNDWATER-FLOW MODEL
                             VERSION 1.1.4 4/01/2018
                    BASED ON MODFLOW-2005 VERSION 1.12.00 02/03/2017

 LIST FILE: C:/GitHub/FUSE/Modflow/output/Bhima_transient.list
                         UNIT    2

 OPENING C:/GitHub/FUSE/Modflow/output/Bhima_transient.dis
 FILE TYPE:DIS   UNIT   11   STATUS:OLD    
 FORMAT:FORMATTED              ACCESS:SEQUENTIAL          

 OPENING C:/GitHub/FUSE/Modflow/output/Bhima_transient.bas
 FILE TYPE:BAS6   UNIT   13   STATUS:OLD    
 FORMAT:FORMATTED              ACCESS:SEQUENTIAL          

 OPENING C:/GitHub/FUSE/Modflow/output/Bhima_transient.upw
 FILE TYPE:UPW   UNIT   31   STATUS:OLD    
 FORMAT:FORMATTED              ACCESS:SEQUENTIAL          

 OPENING C:/GitHub/FUSE/Modflow/output/Bhima_transient.nwt
 FILE TYPE:NWT   UNIT   32   STATUS:OLD    
 FORMAT:FORMATTED              ACCESS:SEQUENTIAL          

 OPENING C:/GitHub/FUSE/Modflow/output/Bhima_transient.drn
 FILE TYPE:DRN   UNIT   21   STATUS:OLD    
 FORMAT:FORMATTED              ACCESS:SEQUENTIAL          

 OPENING C:/GitHub/FUSE/Modflow/output/Bhima_transient.wel
 FILE TYPE:WEL   UNIT   20   STATUS:OLD    
 FORMAT:FORMATTED              ACCESS:SEQUENTIAL          

 OPENING C:/GitHub/FUSE/Modflow/output/Bhima_transient.rch
 FILE TYPE:RCH   UNIT   19   STATUS:OLD    
 FORMAT:FORMATTED              ACCESS:SEQUENTIAL          

 OPENING C:/GitHub/FUSE/Modflow/output/Bhima_transient.oc
 FILE TYPE:OC   UNIT   14   STATUS:OLD    
 FORMAT:FORMATTED              ACCESS:SEQUENTIAL          

 OPENING C:/GitHub/FUSE/Modflow/output/Bhima_transient.hds
 FILE TYPE:DATA(BINARY)   UNIT   51   STATUS:REPLACE
 FORMAT:BINARY                 ACCESS:SEQUENTIAL          

 OPENING C:/GitHub/FUSE/Modflow/output/Bhima_transient.out
 FILE TYPE:DATA   UNIT   50   STATUS:UNKNOWN
 FORMAT:FORMATTED              ACCESS:SEQUENTIAL          

 BAS -- BASIC PACKAGE, VERSION 1.1.4, 4/01/2018 INPUT READ FROM UNIT   13
 
 MODFLOW was compiled using mixed precision
 Precision of REAL variables:           6
 Precision of DOUBLE PRECISION variables:          15

 DISCRETIZATION INPUT DATA READ FROM UNIT   11
 # DIS package for  MODFLOW-NWT, generated by Flopy.
    1 LAYERS       566 ROWS       586 COLUMNS
    1 STRESS PERIOD(S) IN SIMULATION
 MODEL TIME UNIT IS DAYS
 MODEL LENGTH UNIT IS METERS
  Confining bed flag for each layer:
   0

                     DELR =   500.000    

                     DELC =   500.000    



           TOP ELEVATION OF LAYER 1
 READING ON UNIT   11 WITH FORMAT: (586E15.6)          



             MODEL LAYER BOTTOM EL. FOR LAYER   1
 READING ON UNIT   11 WITH FORMAT: (586E15.6)          


 STRESS PERIOD     LENGTH       TIME STEPS     MULTIPLIER FOR DELT    SS FLAG
 ----------------------------------------------------------------------------
        1         1.000000          1                    1.000         TR

 TRANSIENT SIMULATION



 
 # BAS6 package for  MODFLOW-NWT, generated by Flopy.                            
 THE FREE FORMAT OPTION HAS BEEN SELECTED



                     BOUNDARY ARRAY FOR LAYER   1
 READING ON UNIT   13 WITH FORMAT: (586I10)            

 AQUIFER HEAD WILL BE SET TO  -999.99     AT ALL NO-FLOW NODES (IBOUND=0).



                       INITIAL HEAD FOR LAYER   1
 READING ON UNIT   13 WITH FORMAT: (586E15.6)          
 # OC package for  MODFLOW-NWT, generated by Flopy.

 OUTPUT CONTROL IS SPECIFIED ONLY AT TIME STEPS FOR WHICH OUTPUT IS DESIRED
 COMPACT CELL-BY-CELL BUDGET FILES WILL BE WRITTEN
 AUXILIARY DATA WILL BE SAVED IN CELL-BY-CELL BUDGET FILES
 HEAD PRINT FORMAT CODE IS   0    DRAWDOWN PRINT FORMAT CODE IS   0
 HEADS WILL BE SAVED ON UNIT   51    DRAWDOWNS WILL BE SAVED ON UNIT    0
 # NWT package for  MODFLOW-NWT, generated by Flopy.

 NWT1 -- Newton Solver, VERSION 1.1.4, 4/01/2018
         INPUT READ FROM UNIT 32

 SIMPLE OPTION:
 DEFAULT SOLVER INPUT VALUES REFLECT NEARLY LINEAR MODEL
 ***GMRES linear solver will be used***
 
   CONVERGENCE CRITERION OF   0.100000E-01 FOR HEAD SOLUTION
   AND A TOLERANCE OF   0.500000E+03 FOR FLOW SOLUTION AND 
   A MAXIMUM OF   100 OUTER ITERATIONS. 


   D-B-D REDUCTION FACTOR OF    0.970000E+00 AND 
   A D-B-D INCREASE FACTOR OF    0.100000E-03 AND 
   A D-B-D RELAXATION OF    0.000000E+00 AND 
   A MOMENTUM FACTOR OF    0.000000E+00 .


 ***BACKTRACKING IS INACTIVE***
 GMRES -- LINEAR SOLUTION BY GMRES PACKAGE 
     adapted for HYDROTHERM by Kipp and others (2008)
     using software originally developed by Saad (1990) 32
     using algorithms described in Saad (2003)

 UPW1 -- UPSTREAM WEIGHTING FLOW PACKAGE, VERSION 1.1.4, 4/01/2018
         INPUT READ FROM UNIT 31

 # UPW package for  MODFLOW-NWT, generated by Flopy.
 No named parameters

   LAYER FLAGS:
 LAYER       LAYTYP          LAYAVG    CHANI           LAYVKA           LAYWET
 ---------------------------------------------------------------------------
    1             1             0     1.000E+00             1             0

   INTERPRETATION OF LAYER FLAGS:
                        INTERBLOCK     HORIZONTAL    DATA IN
         LAYER TYPE   TRANSMISSIVITY   ANISOTROPY   ARRAY VKA   WETTABILITY
 LAYER   (LAYTYP)        (LAYAVG)      (CHANI)     (LAYVKA)       (LAYWET)
 ---------------------------------------------------------------------------
    1   CONVERTIBLE      HARMONIC     1.000E+00    ANISOTROPY  NON-WETTABLE



              HYD. COND. ALONG ROWS FOR LAYER   1
 READING ON UNIT   31 WITH FORMAT: (586E15.6)          

  HORIZ. TO VERTICAL ANI. =   5.00000     FOR LAYER   1



                   SPECIFIC STORAGE FOR LAYER   1
 READING ON UNIT   31 WITH FORMAT: (586E15.6)          



                     SPECIFIC YIELD FOR LAYER   1
 READING ON UNIT   31 WITH FORMAT: (586E15.6)          

 WEL -- WELL PACKAGE FOR NWT VERSION 1.1.4,  4/01/2018 INPUT READ FROM UNIT   20
 # WEL package for  MODFLOW-NWT, generated by Flopy.
 No named parameters
 MAXIMUM OF  84273 ACTIVE WELLS AT ONE TIME
 No named parameters
 
 NEGATIVE PUMPING RATES WILL BE REDUCED IF HEAD 
 FALLS WITHIN THE INTERVAL PHIRAMP TIMES THE CELL 
 THICKNESS. THE VALUE SPECIFIED FOR PHIRAMP IS  0.10000E+00
 WELLS WITH REDUCED PUMPING WILL BE REPORTED TO FILE UNIT NUMBER   50


     0 Well parameters

 DRN -- DRAIN PACKAGE, VERSION 7, 5/2/2005 INPUT READ FROM UNIT   21
 # DRN package for  MODFLOW-NWT, generated by Flopy.
 No named parameters
 MAXIMUM OF 331676 ACTIVE DRAINS AT ONE TIME
 LISTS OF DRAIN CELLS WILL NOT BE PRINTED


     0 Drain parameters

 RCH -- RECHARGE PACKAGE, VERSION 7, 5/2/2005 INPUT READ FROM UNIT   19
 # RCH package for  MODFLOW-NWT, generated by Flopy.
 No named parameters
 OPTION 3 -- RECHARGE TO HIGHEST ACTIVE NODE IN EACH VERTICAL COLUMN


     0 Recharge parameters
1
                            STRESS PERIOD NO.    1, LENGTH =   1.000000    
                            -----------------------------------------------

                              NUMBER OF TIME STEPS =     1

                               MULTIPLIER FOR DELT =     1.000

                            INITIAL TIME STEP SIZE =   1.000000    

 WELL NO.  LAYER   ROW   COL   STRESS RATE         
 --------------------------------------------------
      1      1    180      7     -0.6064E-01
      2      1    181      7     -0.5886E-01
      3      1    180      8     -0.8427    
      4      1    181      8     -0.7400    
      5      1    180      9     -0.5747    
      6      1    181      9     -0.5069    
      7      1    189      9     -0.1258    
      8      1    190      9     -0.1720    
      9      1    191      9     -0.1710E-01
     10      1    189     10     -0.3159    
     11      1    190     10     -0.4268    
     12      1    191     10     -0.4465E-01
     13      1    189     11     -0.3121    
     14      1    190     11     -0.4268    
     15      1    191     11     -0.4848E-01
     16      1    189     12     -0.3083    
     17      1    190     12     -0.4268    
     18      1    191     12     -0.5231E-01
     19      1    189     13     -0.3790E-01
     20      1    190     13     -0.4957E-01
     21      1    191     13     -0.6047E-02
     22      1    194     13     -0.7039E-01
     23      1    195     13     -0.3963    
     24      1    196     13     -0.2661    
     25      1    194     14     -0.6098E-01
     26      1    195     14     -0.3548    
     27      1    196     14     -0.2370    
     28      1    170     15     -0.1165    
     29      1    171     15     -0.8195    
     30      1    172     15     -0.5796    
     31      1    170     16     -0.9375E-01
     32      1    171     16     -0.6893    
     33      1    172     16     -0.4845    
     34      1    139     18     -0.2492    
     35      1    140     18     -0.5476    
     36      1    141     18     -0.2105    
     37      1    145     18     -0.6558    
     38      1    146     18     -0.6893    
     39      1    147     18     -0.3548    
     40      1    148     18     -0.3688    
     41      1    149     18     -0.3828    
     42      1    150     18     -0.2341    
     43      1    180     18     -0.2941    
     44      1    181     18     -0.3200    
     45      1    139     19      -1.575    
     46      1    140     19      -3.358    
     47      1    141     19      -1.262    
     48      1    145     19      -3.138    
     49      1    146     19      -3.198    
     50      1    147     19      -1.575    
     51      1    148     19      -1.575    
     52      1    149     19      -1.575    
     53      1    150     19     -0.9445    
     54      1    180     19     -0.5636    
     55      1    181     19     -0.6126    
     56      1    130     20     -0.7289    
     57      1    131     20      -1.095    
     58      1    132     20     -0.1822    
     59      1    139     20      -1.545    
     60      1    140     20      -3.358    
     61      1    141     20      -2.149    
     62      1    142     20      -1.422    
     63      1    143     20     -0.3342    
     64      1    145     20      -1.712    
     65      1    146     20      -1.737    
     66      1    147     20     -0.8381    
     67      1    148     20     -0.8242    
     68      1    149     20     -0.8102    
     69      1    150     20     -0.4846    
     70      1    180     20     -0.1351    
     71      1    181     20     -0.1436    
     72      1    130     21      -2.267    
     73      1    131     21      -3.358    
     74      1    132     21     -0.5695    
     75      1    139     21      -1.515    
     76      1    140     21      -3.358    
     77      1    141     21      -3.358    
     78      1    142     21      -3.358    
     79      1    143     21     -0.8002    
     80      1    130     22     -0.9835    
     81      1    131     22      -1.446    
     82      1    132     22     -0.2512    
     83      1    139     22     -0.5346    
     84      1    140     22      -1.179    
     85      1    141     22      -1.150    
     86      1    142     22      -1.120    
     87      1    143     22     -0.2690    
     88      1    146     22     -0.6895E-01
     89      1    147     22      -1.119    
     90      1    148     22      -1.133    
     91      1    149     22      -1.146    
     92      1    150     22     -0.7263    
     93      1    169     22     -0.5334    
     94      1    170     22     -0.5342    
     95      1    146     23     -0.8593E-01
     96      1    147     23      -1.575    
     97      1    148     23      -1.575    
     98      1    149     23      -1.575    
     99      1    150     23      -1.000    
    100      1    152     23     -0.8969E-04
    101      1    153     23     -0.8446E-02
    102      1    154     23     -0.5782E-02
    103      1    169     23     -0.5004    
    104      1    170     23     -0.5003    
    105      1    145     24      -2.798    
    106      1    146     24      -3.029    
    107      1    147     24     -0.7412E-01
    108      1    148     24     -0.3657    
    109      1    149     24      -1.575    
    110      1    150     24      -1.014    
    111      1    152     24     -0.8045    
    112      1    153     24      -1.575    
    113      1    154     24     -0.5248    
    114      1    132     25     -0.1746    
    115      1    133     25     -0.2469    
    116      1    134     25     -0.1405E-01
    117      1    145     25      -2.434    
    118      1    146     25      -2.638    
    119      1    147     25     -0.3079    
    120      1    148     25     -0.5009    
    121      1    149     25      -1.240    
    122      1    150     25     -0.8002    
    123      1    152     25     -0.6022    
    124      1    153     25      -1.185    
    125      1    154     25     -0.4007    
    126      1    204     25     -0.2495    
    127      1    205     25     -0.2959    
    128      1    132     26      -2.641    
    129      1    133     26      -3.358    
    130      1    134     26     -0.1956    
    131      1    146     26     -0.4474E-01
    132      1    147     26      -1.575    
    133      1    148     26      -1.286    
    134      1    204     26     -0.3592    
    135      1    205     26     -0.4267    
    136      1    206     26     -0.1293E-02
    137      1    132     27      -2.612    
    138      1    133     27      -3.358    
    139      1    134     27      -1.242    
    140      1    135     27      -1.025    
    141      1    139     27     -0.4939    
    142      1    140     27      -1.267    
    143      1    141     27     -0.5781    
    144      1    143     27     -0.9603    
    145      1    144     27      -1.384    
    146      1    145     27     -0.1933    
    147      1    146     27     -0.3108E-01
    148      1    147     27      -1.575    
    149      1    148     27      -1.299    
    150      1    204     27     -0.2553E-01
    151      1    205     27     -0.2715E-01
    152      1    206     27     -0.1887E-03
    153      1    132     28      -2.583    
    154      1    133     28      -3.358    
    155      1    134     28      -3.358    
    156      1    135     28      -3.090    
    157      1    139     28      -1.310    
    158      1    140     28      -3.358    
    159      1    141     28      -1.527    
    160      1    143     28      -2.352    
    161      1    144     28      -3.358    
    162      1    145     28     -0.4840    
    163      1    146     28     -0.1748E-01
    164      1    147     28      -1.575    
    165      1    148     28      -1.313    
    166      1    123     29      -608.4    
    167      1    124     29      -543.5    
    168      1    132     29      -2.554    
    169      1    133     29      -3.358    
    170      1    134     29      -3.358    
    171      1    135     29      -3.119    
    172      1    139     29     -0.4973    
    173      1    140     29      -1.275    
    174      1    141     29      -1.711    
    175      1    142     29      -2.141    
    176      1    143     29      -2.992    
    177      1    144     29      -3.358    
    178      1    145     29     -0.5130    
    179      1    146     29     -0.2748E-02
    180      1    147     29     -0.5030    
    181      1    148     29     -0.4117    
    182      1    123     30      -1276.    
    183      1    124     30      -1137.    
    184      1    132     30      -2.525    
    185      1    133     30      -3.358    
    186      1    134     30      -3.358    
    187      1    135     30      -3.148    
    188      1    141     30      -1.773    
    189      1    142     30      -3.358    
    190      1    143     30      -3.358    
    191      1    144     30      -3.358    
    192      1    145     30     -0.5418    
    193      1    174     30     -0.3185E-01
    194      1    175     30     -0.1033    
    195      1    176     30     -0.5643E-01
    196      1    123     31      -358.6    
    197      1    124     31      -314.2    
    198      1    132     31      -2.496    
    199      1    133     31      -3.358    
    200      1    134     31      -3.358    
    201      1    135     31      -3.177    
    202      1    141     31      -1.745    
    203      1    142     31      -3.358    
    204      1    143     31      -3.358    
    205      1    144     31      -3.358    
    206      1    145     31     -0.5706    
    207      1    147     31      -1.432    
    208      1    148     31      -1.261    
    209      1    174     31     -0.2005    
    210      1    175     31     -0.6377    
    211      1    176     31     -0.3381    
    212      1    132     32      -2.467    
    213      1    133     32      -3.358    
    214      1    134     32      -3.193    
    215      1    135     32      -3.002    
    216      1    141     32      -1.517    
    217      1    142     32      -2.944    
    218      1    143     32      -2.915    
    219      1    144     32      -2.887    
    220      1    145     32     -0.5104    
    221      1    147     32      -1.538    
    222      1    148     32      -1.367    
    223      1    174     32     -0.1182    
    224      1    175     32     -0.3805    
    225      1    176     32     -0.2021    
    226      1    108     33      -1.405    
    227      1    109     33      -2.004    
    228      1    110     33     -0.2771    
    229      1    132     33      -2.438    
    230      1    133     33      -3.358    
    231      1    134     33     -0.3981    
    232      1    147     33      -1.525    
    233      1    148     33      -1.380    
    234      1    102     34     -0.1578E-01
    235      1    103     34     -0.8129E-01
    236      1    104     34     -0.6013E-01
    237      1    108     34      -1.537    
    238      1    109     34      -2.180    
    239      1    110     34     -0.3143    
    240      1    132     34      -2.410    
    241      1    133     34      -3.358    
    242      1    134     34     -0.4267    
    243      1    143     34     -0.8164    
    244      1    144     34      -1.286    
    245      1    145     34     -0.2581    
    246      1    147     34     -0.8957    
    247      1    148     34     -0.8864    
    248      1    149     34     -0.6699    
    249      1    150     34     -0.4988    
    250      1    156     34     -0.5614    
    251      1    157     34     -0.7763    
    252      1    158     34     -0.8669E-01
    253      1    102     35     -0.5365    
    254      1    103     35      -2.383    
    255      1    104     35      -1.477    
    256      1    132     35      -2.381    
    257      1    133     35      -3.358    
    258      1    134     35     -0.4552    
    259      1    143     35      -2.152    
    260      1    144     35      -3.358    
    261      1    145     35     -0.6847    
    262      1    148     35     -0.1680    
    263      1    149     35      -1.575    
    264      1    150     35      -1.162    
    265      1    156     35      -1.146    
    266      1    157     35      -1.575    
    267      1    158     35     -0.1841    
    268      1    102     36     -0.4372    
    269      1    103     36      -2.006    
    270      1    104     36      -1.253    
    271      1    132     36      -1.119    
    272      1    133     36      -1.568    
    273      1    134     36     -0.2200    
    274      1    141     36     -0.5073    
    275      1    142     36      -1.078    
    276      1    143     36      -1.215    
    277      1    144     36      -1.257    
    278      1    145     36     -0.2599    
    279      1    148     36     -0.5358E-01
    280      1    149     36     -0.5232    
    281      1    150     36     -0.3805    
    282      1    156     36     -0.3097    
    283      1    157     36     -0.4173    
    284      1    158     36     -0.5009E-01
    285      1    163     36      -1.229    
    286      1    164     36      -3.644    
    287      1    165     36      -2.212    
    288      1    166     36     -0.7287    
    289      1    167     36     -0.2565    
    290      1    102     37     -0.2146    
    291      1    103     37      -1.031    
    292      1    104     37     -0.6565    
    293      1    141     37     -0.8299    
    294      1    142     37      -1.771    
    295      1    143     37     -0.6658    
    296      1    163     37      -1.480    
    297      1    164     37      -4.427    
    298      1    165     37      -2.671    
    299      1    166     37     -0.8520    
    300      1    167     37     -0.3380    
    301      1    168     37     -0.6198E-01
    302      1    169     37     -0.1368E-01
    303      1    185     37     -0.7736E-01
    304      1    186     37     -0.4107    
    305      1    187     37     -0.2762    
    306      1    102     38     -0.1002    
    307      1    103     38     -0.4914    
    308      1    104     38     -0.3113    
    309      1    141     38     -0.8151    
    310      1    142     38      -1.771    
    311      1    143     38     -0.6807    
    312      1    147     38      -3.798    
    313      1    148     38      -3.803    
    314      1    167     38     -0.5704    
    315      1    168     38     -0.8990    
    316      1    169     38     -0.1890    
    317      1    185     38     -0.3528    
    318      1    186     38      -1.879    
    319      1    187     38      -1.235    
    320      1    141     39     -0.7300    
    321      1    142     39      -1.603    
    322      1    143     39     -0.6250    
    323      1    147     39      -3.640    
    324      1    148     39      -3.638    
    325      1    156     39     -0.6735    
    326      1    157     39      -1.007    
    327      1    158     39     -0.1580    
    328      1    159     39     -0.1959E-02
    329      1    160     39      -1.121    
    330      1    161     39     -0.9745    
    331      1    167     39     -0.3927    
    332      1    168     39     -0.6198    
    333      1    169     39     -0.1336    
    334      1    174     39     -0.7997E-01
    335      1    175     39     -0.3313    
    336      1    176     39     -0.2023    
    337      1    178     39     -0.1184    
    338      1    179     39     -0.2166    
    339      1    180     39     -0.6343E-01
    340      1    185     39     -0.1859    
    341      1    186     39      -1.016    
    342      1    187     39     -0.6655    
    343      1    106     40     -0.4039    
    344      1    107     40     -0.8268    
    345      1    108     40     -0.2933    
    346      1    115     40     -0.1472    
    347      1    116     40     -0.5502    
    348      1    117     40     -0.3191    
    349      1    156     40      -3.149    
    350      1    157     40      -4.590    
    351      1    158     40     -0.7283    
    352      1    159     40     -0.1707E-03
    353      1    160     40      -4.575    
    354      1    161     40      -3.893    
    355      1    174     40     -0.2150    
    356      1    175     40     -0.8990    
    357      1    176     40     -0.5443    
    358      1    178     40     -0.2966    
    359      1    179     40     -0.5394    
    360      1    180     40     -0.1590    
    361      1    243     40     -0.9514E-01
    362      1    244     40     -0.8697E-01
    363      1    104     41     -0.8062E-02
    364      1    105     41     -0.3048E-01
    365      1    106     41     -0.5193    
    366      1    107     41      -1.031    
    367      1    108     41     -0.3710    
    368      1    115     41     -0.1639    
    369      1    116     41     -0.6272    
    370      1    117     41     -0.4002    
    371      1    118     41     -0.8657E-01
    372      1    119     41     -0.3899E-01
    373      1    156     41      -3.111    
    374      1    157     41      -4.590    
    375      1    158     41      -2.560    
    376      1    159     41      -2.194    
    377      1    160     41      -2.366    
    378      1    161     41      -2.308    
    379      1    162     41      -2.308    
    380      1    163     41      -1.645    
    381      1    174     41     -0.8295E-01
    382      1    175     41     -0.3508    
    383      1    176     41     -0.2107    
    384      1    178     41     -0.1068    
    385      1    179     41     -0.1927    
    386      1    180     41     -0.4648    
    387      1    181     41     -0.5926    
    388      1    182     41     -0.8897E-01
    389      1    185     41     -0.2682    
    390      1    186     41      -1.670    
    391      1    187     41      -1.152    
    392      1    243     41     -0.5754    
    393      1    244     41     -0.5084    
    394      1    104     42     -0.3313    
    395      1    105     42      -1.031    
    396      1    106     42      -1.031    
    397      1    107     42      -1.031    
    398      1    108     42     -0.3797    
    399      1    115     42     -0.1586    
    400      1    116     42     -0.6272    
    401      1    117     42     -0.6272    
    402      1    118     42     -0.6272    
    403      1    119     42     -0.2738    
    404      1    156     42      -3.073    
    405      1    157     42      -4.590    
    406      1    158     42      -4.590    
    407      1    159     42      -4.590    
    408      1    160     42     -0.9115E-01
    409      1    161     42     -0.6218    
    410      1    162     42      -4.590    
    411      1    163     42      -3.255    
    412      1    180     42     -0.6192    
    413      1    181     42     -0.8990    
    414      1    182     42     -0.1402    
    415      1    185     42     -0.3692    
    416      1    186     42      -2.385    
    417      1    187     42      -1.645    
    418      1    243     42     -0.3414    
    419      1    244     42     -0.3021    
    420      1    104     43     -0.2369    
    421      1    105     43     -0.7485    
    422      1    106     43     -0.7399    
    423      1    107     43     -0.7314    
    424      1    108     43     -0.4646    
    425      1    109     43     -0.3170    
    426      1    110     43     -0.7220E-01
    427      1    115     43     -0.9875E-01
    428      1    116     43     -0.3980    
    429      1    117     43     -0.3928    
    430      1    118     43     -0.3876    
    431      1    119     43     -0.1701    
    432      1    156     43      -3.035    
    433      1    157     43      -4.590    
    434      1    158     43      -1.923    
    435      1    159     43      -1.285    
    436      1    160     43     -0.3177E-01
    437      1    161     43     -0.1554    
    438      1    162     43      -1.172    
    439      1    163     43     -0.8140    
    440      1    180     43     -0.6564E-01
    441      1    181     43     -0.8975E-01
    442      1    182     43     -0.6965    
    443      1    183     43     -0.8240    
    444      1    184     43     -0.7480E-02
    445      1    185     43     -0.2286E-01
    446      1    186     43     -0.1408    
    447      1    187     43     -0.8630E-01
    448      1    108     44     -0.6344    
    449      1    109     44      -1.031    
    450      1    110     44     -0.2367    
    451      1    156     44      -2.998    
    452      1    157     44      -4.590    
    453      1    158     44     -0.8794    
    454      1    182     44     -0.7442    
    455      1    183     44     -0.8990    
    456      1    184     44     -0.4022    
    457      1    185     44     -0.3571    
    458      1    106     45     -0.2455    
    459      1    107     45     -0.5520    
    460      1    108     45     -0.5061    
    461      1    109     45     -0.4622    
    462      1    110     45     -0.1076    
    463      1    130     45     -0.6042    
    464      1    131     45      -1.298    
    465      1    132     45     -0.4908    
    466      1    152     45      -1.391    
    467      1    153     45      -4.192    
    468      1    154     45      -2.155    
    469      1    156     45      -2.960    
    470      1    157     45      -4.590    
    471      1    158     45     -0.9169    
    472      1    182     45     -0.7369    
    473      1    183     45     -0.8990    
    474      1    184     45      -2.348    
    475      1    185     45      -2.074    
    476      1    106     46     -0.4573    
    477      1    107     46      -1.031    
    478      1    108     46     -0.4138    
    479      1    130     46     -0.8186    
    480      1    131     46      -1.771    
    481      1    132     46     -0.6771    
    482      1    143     46     -0.7349E-01
    483      1    144     46     -0.1458    
    484      1    145     46     -0.4638E-01
    485      1    152     46      -1.275    
    486      1    153     46      -3.876    
    487      1    154     46      -2.357    
    488      1    155     46     -0.7885    
    489      1    156     46      -3.221    
    490      1    157     46      -4.590    
    491      1    158     46     -0.9542    
    492      1    182     46     -0.7297    
    493      1    183     46     -0.8990    
    494      1    184     46      -1.400    
    495      1    185     46      -1.224    
    496      1    255     46     -0.1558E-01
    497      1    256     46     -0.5772    
    498      1    257     46     -0.4753    
    499      1     97     47     -0.4740    
    500      1     98     47     -0.7279    
    501      1     99     47     -0.1372    
    502      1    106     47     -0.1022    
    503      1    107     47     -0.2271    
    504      1    108     47     -0.8983E-01
    505      1    123     47     -0.4760    
    506      1    124     47     -0.5765    
    507      1    125     47     -0.7021E-02
    508      1    130     47     -0.2402E-01
    509      1    131     47     -0.4189E-01
    510      1    132     47     -0.1232E-01
    511      1    143     47     -0.9586    
    512      1    144     47      -1.771    
    513      1    145     47     -0.5371    
    514      1    154     47      -2.173    
    515      1    155     47      -4.590    
    516      1    156     47      -4.590    
    517      1    157     47      -4.590    
    518      1    158     47     -0.9915    
    519      1    182     47     -0.7224    
    520      1    183     47     -0.8990    
    521      1    184     47     -0.3695E-01
    522      1    255     47     -0.9280E-02
    523      1    256     47     -0.4583    
    524      1    257     47     -0.3744    
    525      1     97     48     -0.6709    
    526      1     98     48      -1.031    
    527      1     99     48     -0.2002    
    528      1    108     48     -0.2042E-01
    529      1    109     48     -0.4194E-01
    530      1    110     48     -0.1259E-01
    531      1    123     48     -0.5173    
    532      1    124     48     -0.6272    
    533      1    125     48     -0.1173    
    534      1    126     48     -0.9723E-01
    535      1    143     48     -0.6446    
    536      1    144     48      -1.195    
    537      1    145     48     -0.3677    
    538      1    149     48      -1.673    
    539      1    150     48      -1.452    
    540      1    152     48     -0.5541    
    541      1    153     48      -1.827    
    542      1    154     48      -3.132    
    543      1    155     48      -4.590    
    544      1    156     48      -3.388    
    545      1    157     48      -2.615    
    546      1    158     48      -2.136    
    547      1    159     48      -2.049    
    548      1    160     48      -2.086    
    549      1    161     48      -1.942    
    550      1    182     48     -0.7152    
    551      1    183     48     -0.8991    
    552      1    184     48      -1.511    
    553      1    185     48      -1.398    
    554      1     97     49     -0.3728E-01
    555      1     98     49     -0.5074E-01
    556      1     99     49     -0.9066E-02
    557      1    108     49     -0.5921    
    558      1    109     49      -1.031    
    559      1    110     49     -0.2790    
    560      1    123     49     -0.5122    
    561      1    124     49     -0.6272    
    562      1    125     49     -0.6272    
    563      1    126     49     -0.5474    
    564      1    149     49      -4.550    
    565      1    150     49      -3.918    
    566      1    152     49      -1.385    
    567      1    153     49      -4.590    
    568      1    154     49      -4.590    
    569      1    155     49      -4.590    
    570      1    156     49      -1.779    
    571      1    158     49      -3.525    
    572      1    159     49      -4.590    
    573      1    160     49      -4.590    
    574      1    161     49      -4.230    
    575      1    182     49     -0.7080    
    576      1    183     49     -0.8991    
    577      1    184     49      -2.300    
    578      1    185     49      -2.151    
    579      1     77     50     -0.1812E-01
    580      1     78     50     -0.2362E-01
    581      1    108     50     -0.4218    
    582      1    109     50     -0.7372    
    583      1    110     50     -0.2031    
    584      1    123     50     -0.3052    
    585      1    124     50     -0.3722    
    586      1    125     50     -0.6173    
    587      1    126     50     -0.5525    
    588      1    137     50     -0.4484E-01
    589      1    138     50     -0.9201    
    590      1    139     50     -0.7421    
    591      1    143     50     -0.5127    
    592      1    144     50      -1.006    
    593      1    145     50     -0.3343    
    594      1    149     50      -1.772    
    595      1    150     50      -1.516    
    596      1    152     50     -0.4964    
    597      1    153     50      -1.651    
    598      1    154     50      -2.951    
    599      1    155     50      -4.590    
    600      1    156     50      -1.816    
    601      1    158     50      -3.488    
    602      1    159     50      -4.590    
    603      1    160     50      -4.590    
    604      1    161     50      -4.267    
    605      1    165     50     -0.2526    
    606      1    166     50     -0.6694    
    607      1    167     50     -0.3133    
    608      1    182     50     -0.8920E-01
    609      1    183     50     -0.1075    
    610      1    184     50      -2.236    
    611      1    185     50      -2.170    
    612      1    187     50     -0.5355    
    613      1    188     50      -2.195    
    614      1    189     50      -1.324    
    615      1     77     51     -0.7256    
    616      1     78     51     -0.7326    
    617      1    125     51     -0.5995    
    618      1    126     51     -0.5576    
    619      1    137     51     -0.7622E-01
    620      1    138     51      -1.771    
    621      1    139     51      -1.420    
    622      1    143     51     -0.9014    
    623      1    144     51      -1.771    
    624      1    145     51     -0.5943    
    625      1    154     51      -2.025    
    626      1    155     51      -4.590    
    627      1    156     51      -1.852    
    628      1    158     51      -3.451    
    629      1    159     51      -4.590    
    630      1    160     51      -4.590    
    631      1    161     51      -4.303    
    632      1    165     51     -0.3356    
    633      1    166     51     -0.8991    
    634      1    167     51     -0.4238    
    635      1    184     51      -1.925    
    636      1    185     51      -1.914    
    637      1    186     51     -0.3462    
    638      1    187     51     -0.7575    
    639      1    188     51      -2.001    
    640      1    189     51      -1.204    
    641      1     77     52     -0.5250    
    642      1     78     52     -0.5327    
    643      1     90     52     -0.2955    
    644      1     91     52     -0.2578    
    645      1     95     52     -0.1987    
    646      1     96     52     -0.4378    
    647      1     97     52     -0.1705    
    648      1    119     52     -0.1844    
    649      1    120     52     -0.3877    
    650      1    121     52     -0.1426    
    651      1    125     52     -0.5944    
    652      1    126     52     -0.5626    
    653      1    134     52     -0.9372    
    654      1    135     52      -1.308    
    655      1    136     52     -0.1597    
    656      1    137     52     -0.6201E-01
    657      1    138     52      -1.771    
    658      1    139     52      -1.434    
    659      1    143     52     -0.8873    
    660      1    144     52      -1.771    
    661      1    145     52     -0.6085    
    662      1    147     52      -3.111    
    663      1    148     52      -3.868    
    664      1    149     52      -3.905    
    665      1    150     52      -3.459    
    666      1    154     52      -1.988    
    667      1    155     52      -4.590    
    668      1    156     52      -1.889    
    669      1    158     52     -0.2622    
    670      1    159     52     -0.3188    
    671      1    160     52      -4.157    
    672      1    161     52      -4.340    
    673      1    165     52     -0.6348E-02
    674      1    166     52     -0.1230E-01
    675      1    167     52     -0.3336E-02
    676      1    185     52     -0.1775    
    677      1    186     52      -2.385    
    678      1    187     52      -1.837    
    679      1     90     53     -0.7816    
    680      1     91     53     -0.6767    
    681      1     95     53     -0.4688    
    682      1     96     53      -1.031    
    683      1     97     53     -0.4023    
    684      1    119     53     -0.2971    
    685      1    120     53     -0.6272    
    686      1    121     53     -0.2327    
    687      1    125     53     -0.5894    
    688      1    126     53     -0.5676    
    689      1    134     53      -1.269    
    690      1    135     53      -1.771    
    691      1    136     53     -0.2272    
    692      1    137     53     -0.4779E-01
    693      1    138     53      -1.761    
    694      1    139     53      -1.429    
    695      1    143     53     -0.9850    
    696      1    144     53      -2.028    
    697      1    145     53     -0.7232    
    698      1    147     53      -3.590    
    699      1    148     53      -4.454    
    700      1    149     53      -4.441    
    701      1    150     53      -3.922    
    702      1    154     53      -1.690    
    703      1    155     53      -3.943    
    704      1    156     53      -1.901    
    705      1    157     53     -0.4697    
    706      1    158     53     -0.1296    
    707      1    160     53      -3.835    
    708      1    161     53      -4.089    
    709      1    167     53     -0.3604    
    710      1    168     53     -0.7248    
    711      1    169     53     -0.2480    
    712      1    185     53     -0.1003    
    713      1    186     53      -1.464    
    714      1    187     53      -1.124    
    715      1    202     53     -0.5056    
    716      1    203     53      -1.104    
    717      1    204     53      -1.121    
    718      1    205     53      -1.137    
    719      1    206     53     -0.2592    
    720      1    224     53     -0.7935E-01
    721      1    225     53     -0.2432    
    722      1    226     53     -0.1265    
    723      1    232     53     -0.2495    
    724      1    233     53     -0.2368    
    725      1     88     54     -0.5038    
    726      1     89     54     -0.6190    
    727      1     90     54     -0.3073    
    728      1     91     54     -0.2528    
    729      1     95     54     -0.1557    
    730      1     96     54     -0.3407    
    731      1     97     54     -0.1324    
    732      1    113     54     -0.6616E-03
    733      1    114     54      -1.817    
    734      1    115     54      -1.553    
    735      1    119     54     -0.4230E-01
    736      1    120     54     -0.8648E-01
    737      1    121     54      -1.240    
    738      1    122     54      -1.963    
    739      1    123     54      -1.981    
    740      1    124     54      -1.999    
    741      1    125     54     -0.1953    
    742      1    126     54     -0.2285    
    743      1    127     54      -2.052    
    744      1    128     54      -1.567    
    745      1    132     54      -3.487    
    746      1    133     54      -6.349    
    747      1    134     54      -1.894    
    748      1    135     54     -0.3206E-01
    749      1    136     54     -0.3185E-02
    750      1    143     54      -3.188    
    751      1    144     54      -6.573    
    752      1    145     54      -2.363    
    753      1    147     54      -2.384    
    754      1    148     54      -2.995    
    755      1    149     54      -2.995    
    756      1    150     54      -2.676    
    757      1    156     54      -1.715    
    758      1    157     54      -2.995    
    759      1    158     54     -0.8148    
    760      1    160     54      -2.646    
    761      1    161     54      -2.879    
    762      1    167     54      -1.500    
    763      1    168     54      -2.971    
    764      1    169     54      -1.010    
    765      1    202     54     -0.9712    
    766      1    203     54      -2.124    
    767      1    204     54      -2.124    
    768      1    205     54      -2.124    
    769      1    206     54     -0.4927    
    770      1    224     54     -0.1133    
    771      1    225     54     -0.3515    
    772      1    226     54     -0.1836    
    773      1    232     54     -0.3318    
    774      1    233     54     -0.3166    
    775      1    246     54     -0.8766E-02
    776      1    247     54     -0.4991E-01
    777      1    248     54     -0.3506E-01
    778      1     88     55     -0.8249    
    779      1     89     55      -1.009    
    780      1     90     55     -0.2766E-01
    781      1    108     55     -0.6288E-02
    782      1    109     55     -0.1793E-01
    783      1    110     55     -0.7440E-02
    784      1    114     55      -2.088    
    785      1    115     55      -1.781    
    786      1    119     55     -0.1018    
    787      1    120     55     -0.2371    
    788      1    121     55      -1.310    
    789      1    122     55      -1.963    
    790      1    123     55      -2.169    
    791      1    124     55      -2.235    
    792      1    125     55     -0.4711    
    793      1    126     55     -0.4671    
    794      1    127     55      -1.874    
    795      1    128     55      -1.421    
    796      1    132     55      -2.859    
    797      1    133     55      -5.197    
    798      1    134     55      -1.542    
    799      1    136     55      -1.309    
    800      1    137     55      -1.571    
    801      1    139     55     -0.2796    
    802      1    140     55      -1.740    
    803      1    141     55      -1.215    
    804      1    143     55      -3.136    
    805      1    144     55      -6.573    
    806      1    145     55      -2.415    
    807      1    147     55      -2.360    
    808      1    148     55      -2.995    
    809      1    149     55      -2.048    
    810      1    150     55      -1.770    
    811      1    156     55      -1.691    
    812      1    157     55      -2.995    
    813      1    158     55     -0.8385    
    814      1    160     55      -2.622    
    815      1    161     55      -2.940    
    816      1    162     55      -1.313    
    817      1    163     55      -1.089    
    818      1    167     55      -1.476    
    819      1    168     55      -2.971    
    820      1    169     55      -1.033    
    821      1    189     55     -0.4820    
    822      1    190     55      -1.349    
    823      1    191     55     -0.6591    
    824      1    197     55      -1.435    
    825      1    198     55      -1.273    
    826      1    202     55     -0.2363    
    827      1    203     55     -0.5104    
    828      1    204     55     -0.4938    
    829      1    205     55     -0.4772    
    830      1    206     55     -0.1106    
    831      1    222     55     -0.5080E-01
    832      1    223     55     -0.3218    
    833      1    224     55     -0.3328    
    834      1    225     55     -0.3515    
    835      1    226     55     -0.3416    
    836      1    227     55     -0.3327    
    837      1    228     55     -0.1254    
    838      1    230     55     -0.2663    
    839      1    231     55     -0.3436    
    840      1    232     55     -0.3511    
    841      1    233     55     -0.3193    
    842      1    246     55     -0.8871E-01
    843      1    247     55     -0.4936    
    844      1    248     55     -0.3282    
    845      1     88     56     -0.1219    
    846      1     89     56     -0.1426    
    847      1     90     56     -0.4427E-02
    848      1    108     56     -0.5021    
    849      1    109     56     -0.9697    
    850      1    110     56     -0.3170    
    851      1    119     56      -1.005    
    852      1    120     56      -2.235    
    853      1    121     56     -0.8827    
    854      1    123     56      -1.700    
    855      1    124     56      -2.235    
    856      1    125     56      -2.235    
    857      1    126     56      -2.076    
    858      1    136     56      -5.573    
    859      1    137     56      -6.551    
    860      1    138     56     -0.2276E-03
    861      1    139     56      -1.042    
    862      1    140     56      -6.573    
    863      1    141     56      -4.509    
    864      1    143     56      -3.084    
    865      1    144     56      -6.573    
    866      1    145     56      -2.467    
    867      1    147     56      -2.336    
    868      1    148     56      -2.995    
    869      1    149     56     -0.1936    
    870      1    156     56      -1.668    
    871      1    157     56      -2.995    
    872      1    158     56     -0.8620    
    873      1    160     56      -2.599    
    874      1    161     56      -2.995    
    875      1    162     56      -2.995    
    876      1    163     56      -2.461    
    877      1    167     56      -1.453    
    878      1    168     56      -2.971    
    879      1    169     56      -1.056    
    880      1    189     56     -0.7251    
    881      1    190     56      -2.049    
    882      1    191     56      -1.006    
    883      1    197     56      -1.999    
    884      1    198     56      -1.781    
    885      1    204     56     -0.1153E-01
    886      1    205     56     -0.3256E-01
    887      1    206     56     -0.1077E-01
    888      1    222     56     -0.5578E-01
    889      1    223     56     -0.3696    
    890      1    224     56     -0.3647    
    891      1    225     56     -0.3515    
    892      1    226     56     -0.3225    
    893      1    227     56     -0.2863    
    894      1    228     56     -0.1086    
    895      1    230     56     -0.2717    
    896      1    231     56     -0.3515    
    897      1    232     56     -0.2786    
    898      1    233     56     -0.2473    
    899      1    241     56     -0.1702    
    900      1    242     56     -0.2475    
    901      1    243     56     -0.3554E-01
    902      1    246     56     -0.8491E-01
    903      1    247     56     -0.4936    
    904      1    248     56     -0.4254    
    905      1    249     56     -0.2917    
    906      1    250     56     -0.1540    
    907      1    104     57     -0.4307E-01
    908      1    105     57     -0.2242    
    909      1    106     57     -0.1495    
    910      1    108     57     -0.3680    
    911      1    109     57     -0.7147    
    912      1    110     57     -0.2368    
    913      1    119     57     -0.6495    
    914      1    120     57      -1.453    
    915      1    121     57     -0.5782    
    916      1    123     57      -1.682    
    917      1    124     57      -2.235    
    918      1    125     57      -1.446    
    919      1    126     57      -1.260    
    920      1    136     57      -2.894    
    921      1    137     57      -3.391    
    922      1    138     57     -0.9288E-02
    923      1    139     57     -0.4984    
    924      1    140     57      -3.235    
    925      1    141     57      -2.208    
    926      1    143     57      -1.421    
    927      1    144     57      -3.029    
    928      1    145     57      -1.141    
    929      1    147     57      -2.313    
    930      1    148     57      -2.995    
    931      1    149     57     -0.2172    
    932      1    156     57      -1.644    
    933      1    157     57      -2.995    
    934      1    158     57     -0.8855    
    935      1    160     57      -2.575    
    936      1    161     57      -2.967    
    937      1    162     57     -0.9573    
    938      1    163     57     -0.7738    
    939      1    167     57     -0.4005    
    940      1    168     57     -0.8101    
    941      1    169     57     -0.2863    
    942      1    173     57      -2.156    
    943      1    174     57      -2.065    
    944      1    180     57     -0.8335    
    945      1    181     57      -1.478    
    946      1    182     57      -2.212    
    947      1    183     57      -2.509    
    948      1    184     57     -0.3046    
    949      1    189     57     -0.7091    
    950      1    190     57      -2.049    
    951      1    191     57      -1.022    
    952      1    193     57      -1.243    
    953      1    194     57      -1.906    
    954      1    195     57     -0.3602    
    955      1    197     57      -1.983    
    956      1    198     57      -1.797    
    957      1    204     57      -1.252    
    958      1    205     57      -2.124    
    959      1    206     57     -0.5423    
    960      1    222     57     -0.6728E-01
    961      1    223     57     -0.4687    
    962      1    224     57     -0.4336    
    963      1    225     57     -0.3515    
    964      1    226     57     -0.1918    
    965      1    230     57     -0.2690    
    966      1    231     57     -0.3515    
    967      1    232     57     -0.2785E-01
    968      1    241     57     -0.5742    
    969      1    242     57     -0.8227    
    970      1    243     57     -0.1206    
    971      1    246     57     -0.8113E-01
    972      1    247     57     -0.4936    
    973      1    248     57     -0.5989    
    974      1    249     57     -0.8227    
    975      1    250     57     -0.4317    
    976      1    104     58     -0.1854    
    977      1    105     58     -0.9697    
    978      1    106     58     -0.6336    
    979      1    123     58      -1.664    
    980      1    124     58      -2.235    
    981      1    125     58     -0.2236    
    982      1    147     58      -2.289    
    983      1    148     58      -2.995    
    984      1    149     58     -0.2406    
    985      1    156     58      -1.621    
    986      1    157     58      -2.995    
    987      1    158     58     -0.9090    
    988      1    160     58      -2.552    
    989      1    161     58      -2.973    
    990      1    173     58      -2.792    
    991      1    174     58      -2.689    
    992      1    178     58     -0.5854E-01
    993      1    179     58     -0.1617    
    994      1    180     58      -1.016    
    995      1    181     58      -1.658    
    996      1    182     58      -2.429    
    997      1    183     58      -2.717    
    998      1    184     58     -0.5119    
    999      1    185     58     -0.2017    
   1000      1    189     58     -0.6010    
   1001      1    190     58      -1.763    
   1002      1    191     58     -0.8859    
   1003      1    193     58      -1.113    
   1004      1    194     58      -1.700    
   1005      1    195     58     -0.3294    
   1006      1    197     58      -1.587    
   1007      1    198     58      -1.448    
   1008      1    204     58      -1.235    
   1009      1    205     58      -2.124    
   1010      1    206     58     -0.5587    
   1011      1    222     58     -0.6977E-01
   1012      1    223     58     -0.5148    
   1013      1    224     58     -0.4953    
   1014      1    225     58     -0.4474    
   1015      1    226     58     -0.3139    
   1016      1    227     58     -0.1492    
   1017      1    228     58     -0.1519    
   1018      1    229     58     -0.1546    
   1019      1    230     58     -0.3442    
   1020      1    231     58     -0.4048    
   1021      1    232     58     -0.3534E-01
   1022      1    241     58     -0.2662    
   1023      1    242     58     -0.3792    
   1024      1    243     58     -0.2852    
   1025      1    244     58     -0.2736    
   1026      1    245     58     -0.2111E-03
   1027      1    246     58     -0.7736E-01
   1028      1    247     58     -0.4936    
   1029      1    248     58     -0.4462    
   1030      1    249     58     -0.3352    
   1031      1    250     58     -0.1752    
   1032      1    101     59     -0.3755    
   1033      1    102     59     -0.4271    
   1034      1    104     59     -0.9495E-01
   1035      1    105     59     -0.5082    
   1036      1    106     59     -0.3309    
   1037      1    123     59      -1.647    
   1038      1    124     59      -2.235    
   1039      1    125     59      -1.503    
   1040      1    126     59      -1.367    
   1041      1    138     59      -4.729    
   1042      1    139     59      -4.226    
   1043      1    147     59      -2.266    
   1044      1    148     59      -2.995    
   1045      1    149     59     -0.2640    
   1046      1    156     59      -1.598    
   1047      1    157     59      -2.995    
   1048      1    158     59     -0.9323    
   1049      1    160     59     -0.2350    
   1050      1    161     59     -0.2550    
   1051      1    167     59      -1.333    
   1052      1    168     59      -2.879    
   1053      1    169     59      -2.902    
   1054      1    170     59      -2.925    
   1055      1    171     59     -0.6572    
   1056      1    173     59      -2.769    
   1057      1    174     59      -2.712    
   1058      1    178     59      -1.183    
   1059      1    179     59      -2.971    
   1060      1    180     59      -1.327    
   1061      1    184     59      -1.771    
   1062      1    185     59      -2.009    
   1063      1    204     59      -1.219    
   1064      1    205     59      -2.124    
   1065      1    206     59     -0.5750    
   1066      1    222     59     -0.7511E-01
   1067      1    223     59     -0.5859    
   1068      1    224     59     -0.5859    
   1069      1    225     59     -0.5859    
   1070      1    226     59     -0.4830    
   1071      1    227     59     -0.3515    
   1072      1    228     59     -0.3515    
   1073      1    229     59     -0.3515    
   1074      1    230     59     -0.4394    
   1075      1    231     59     -0.4687    
   1076      1    232     59     -0.4431E-01
   1077      1    243     59     -0.4137    
   1078      1    244     59     -0.4936    
   1079      1    245     59     -0.3137E-02
   1080      1    246     59     -0.7360E-01
   1081      1    247     59     -0.4936    
   1082      1    248     59     -0.3433    
   1083      1    101     60     -0.8386    
   1084      1    102     60     -0.9502    
   1085      1    123     60      -1.629    
   1086      1    124     60      -2.235    
   1087      1    125     60      -2.235    
   1088      1    126     60      -2.147    
   1089      1    138     60      -6.387    
   1090      1    139     60      -5.737    
   1091      1    141     60     -0.8031E-02
   1092      1    142     60     -0.6147E-01
   1093      1    143     60     -0.1125    
   1094      1    144     60     -0.1636    
   1095      1    145     60     -0.8193E-01
   1096      1    147     60      -2.243    
   1097      1    148     60      -2.995    
   1098      1    149     60     -0.2874    
   1099      1    154     60     -0.1153    
   1100      1    155     60     -0.3301    
   1101      1    156     60      -1.740    
   1102      1    157     60      -2.995    
   1103      1    158     60     -0.9556    
   1104      1    165     60     -0.1693    
   1105      1    166     60     -0.5804    
   1106      1    167     60      -1.576    
   1107      1    168     60      -2.721    
   1108      1    169     60      -2.871    
   1109      1    170     60      -2.971    
   1110      1    171     60     -0.6871    
   1111      1    173     60      -2.746    
   1112      1    174     60      -2.735    
   1113      1    178     60     -0.8255    
   1114      1    179     60      -2.093    
   1115      1    180     60     -0.9407    
   1116      1    184     60      -1.170    
   1117      1    185     60      -1.338    
   1118      1    186     60     -0.7164    
   1119      1    187     60     -0.6103    
   1120      1    191     60     -0.3803    
   1121      1    192     60     -0.8109    
   1122      1    193     60     -0.3029    
   1123      1    197     60     -0.8386    
   1124      1    198     60     -0.8160    
   1125      1    204     60     -0.6162    
   1126      1    205     60      -1.072    
   1127      1    206     60     -0.2935    
   1128      1    222     60     -0.2676E-01
   1129      1    223     60     -0.2151    
   1130      1    224     60     -0.2106    
   1131      1    225     60     -0.2062    
   1132      1    226     60     -0.1669    
   1133      1    227     60     -0.1183    
   1134      1    228     60     -0.3464    
   1135      1    229     60     -0.5105    
   1136      1    230     60     -0.4203    
   1137      1    231     60     -0.3874    
   1138      1    232     60     -0.2606    
   1139      1    233     60     -0.2362    
   1140      1    243     60     -0.5173    
   1141      1    244     60     -0.6240    
   1142      1    245     60     -0.3980    
   1143      1    246     60     -0.3558    
   1144      1    247     60     -0.9115E-01
   1145      1    248     60     -0.6157E-01
   1146      1     93     61     -0.1429    
   1147      1     94     61     -0.6150    
   1148      1     95     61     -0.3792    
   1149      1    101     61     -0.2586    
   1150      1    102     61     -0.2894    
   1151      1    110     61      -1.077    
   1152      1    111     61      -1.716    
   1153      1    112     61     -0.3658    
   1154      1    121     61      -1.071    
   1155      1    122     61      -1.908    
   1156      1    123     61     -0.7590    
   1157      1    124     61     -0.2924    
   1158      1    125     61     -0.2750    
   1159      1    126     61     -0.2487    
   1160      1    138     61      -6.336    
   1161      1    139     61      -5.788    
   1162      1    141     61      -1.806    
   1163      1    142     61      -6.573    
   1164      1    143     61      -6.573    
   1165      1    144     61      -6.573    
   1166      1    145     61      -2.724    
   1167      1    147     61      -2.219    
   1168      1    148     61      -2.995    
   1169      1    149     61     -0.3106    
   1170      1    154     61      -1.086    
   1171      1    155     61      -2.995    
   1172      1    156     61      -2.995    
   1173      1    157     61      -2.995    
   1174      1    158     61     -0.9787    
   1175      1    165     61     -0.8760    
   1176      1    166     61      -2.971    
   1177      1    167     61      -2.436    
   1178      1    168     61      -1.783    
   1179      1    169     61      -2.502    
   1180      1    170     61      -2.971    
   1181      1    171     61     -0.7100    
   1182      1    173     61      -2.723    
   1183      1    174     61      -2.758    
   1184      1    185     61     -0.8821E-02
   1185      1    186     61      -2.050    
   1186      1    187     61      -1.722    
   1187      1    191     61     -0.9644    
   1188      1    192     61      -2.050    
   1189      1    193     61     -0.7666    
   1190      1    197     61      -1.920    
   1191      1    198     61      -1.860    
   1192      1    228     61     -0.3394    
   1193      1    229     61     -0.5859    
   1194      1    230     61     -0.4137    
   1195      1    231     61     -0.3515    
   1196      1    232     61     -0.3515    
   1197      1    233     61     -0.3355    
   1198      1    243     61     -0.5449    
   1199      1    244     61     -0.6632    
   1200      1    245     61     -0.4973    
   1201      1    246     61     -0.4275    
   1202      1    291     61     -0.1123    
   1203      1    292     61     -0.1298    
   1204      1     93     62     -0.2208    
   1205      1     94     62     -0.9697    
   1206      1     95     62     -0.5982    
   1207      1    110     62      -1.391    
   1208      1    111     62      -2.209    
   1209      1    112     62     -0.5166    
   1210      1    113     62     -0.6157E-01
   1211      1    114     62     -0.4763E-02
   1212      1    115     62     -0.9192E-02
   1213      1    116     62     -0.1137    
   1214      1    117     62     -0.9754E-01
   1215      1    121     62      -1.247    
   1216      1    122     62      -2.235    
   1217      1    123     62     -0.8095    
   1218      1    124     62     -0.2525    
   1219      1    125     62     -0.3535E-01
   1220      1    126     62     -0.6117E-02
   1221      1    127     62     -0.3045    
   1222      1    128     62     -0.2639    
   1223      1    138     62      -4.897    
   1224      1    139     62      -4.665    
   1225      1    140     62      -1.557    
   1226      1    141     62      -2.504    
   1227      1    142     62      -4.914    
   1228      1    143     62      -5.587    
   1229      1    144     62      -6.573    
   1230      1    145     62      -2.775    
   1231      1    147     62      -2.196    
   1232      1    148     62      -2.995    
   1233      1    149     62      -1.148    
   1234      1    150     62     -0.9013    
   1235      1    154     62      -1.063    
   1236      1    155     62      -2.995    
   1237      1    156     62      -2.995    
   1238      1    157     62      -2.995    
   1239      1    158     62      -1.002    
   1240      1    160     62     -0.9605    
   1241      1    161     62      -1.194    
   1242      1    162     62     -0.3133E-01
   1243      1    165     62     -0.8531    
   1244      1    166     62      -2.971    
   1245      1    167     62      -2.445    
   1246      1    168     62      -1.783    
   1247      1    169     62      -1.676    
   1248      1    170     62      -1.581    
   1249      1    171     62     -0.3836    
   1250      1    173     62      -1.377    
   1251      1    174     62      -1.485    
   1252      1    175     62      -1.504    
   1253      1    176     62      -1.192    
   1254      1    185     62     -0.2942E-04
   1255      1    186     62     -0.8385    
   1256      1    187     62     -0.6976    
   1257      1    191     62     -0.9487    
   1258      1    192     62      -2.050    
   1259      1    193     62     -0.7822    
   1260      1    195     62      -1.045    
   1261      1    196     62      -1.367    
   1262      1    197     62      -2.003    
   1263      1    198     62      -1.876    
   1264      1    228     62     -0.2981E-01
   1265      1    229     62     -0.4833E-01
   1266      1    230     62     -0.3124E-01
   1267      1    231     62     -0.2368E-01
   1268      1    232     62     -0.2102E-01
   1269      1    233     62     -0.1765E-01
   1270      1    243     62     -0.6709    
   1271      1    244     62     -0.8227    
   1272      1    245     62     -0.5032    
   1273      1    246     62     -0.4312    
   1274      1    291     62     -0.2908    
   1275      1    292     62     -0.3341    
   1276      1     93     63     -0.2714E-01
   1277      1     94     63     -0.1169    
   1278      1     95     63     -0.3922    
   1279      1     96     63     -0.8680    
   1280      1     97     63     -0.4103    
   1281      1    101     63     -0.7623    
   1282      1    102     63     -0.9133    
   1283      1    103     63     -0.3267E-02
   1284      1    106     63     -0.2907    
   1285      1    107     63     -0.9511    
   1286      1    108     63     -0.5142    
   1287      1    112     63      -1.729    
   1288      1    113     63      -2.235    
   1289      1    114     63     -0.1592    
   1290      1    115     63     -0.1880    
   1291      1    116     63      -2.235    
   1292      1    117     63      -1.700    
   1293      1    121     63      -1.230    
   1294      1    122     63      -2.235    
   1295      1    123     63      -2.235    
   1296      1    124     63      -2.235    
   1297      1    125     63     -0.3108    
   1298      1    126     63     -0.3647E-01
   1299      1    127     63      -2.235    
   1300      1    128     63      -1.852    
   1301      1    139     63     -0.6832    
   1302      1    140     63      -6.573    
   1303      1    141     63      -4.868    
   1304      1    143     63      -2.726    
   1305      1    144     63      -6.573    
   1306      1    145     63      -2.826    
   1307      1    147     63      -2.173    
   1308      1    148     63      -2.995    
   1309      1    149     63      -2.995    
   1310      1    150     63      -2.887    
   1311      1    154     63      -1.040    
   1312      1    155     63      -2.995    
   1313      1    156     63      -2.995    
   1314      1    157     63      -2.995    
   1315      1    158     63      -1.025    
   1316      1    160     63      -2.436    
   1317      1    161     63      -2.995    
   1318      1    162     63     -0.9391E-01
   1319      1    165     63     -0.8303    
   1320      1    166     63      -2.971    
   1321      1    167     63      -2.454    
   1322      1    168     63      -1.783    
   1323      1    169     63     -0.7304    
   1324      1    174     63     -0.1679    
   1325      1    175     63      -2.971    
   1326      1    176     63      -2.342    
   1327      1    191     63     -0.9331    
   1328      1    192     63      -2.050    
   1329      1    193     63     -0.7978    
   1330      1    195     63      -1.570    
   1331      1    196     63      -2.050    
   1332      1    197     63      -2.050    
   1333      1    198     63      -1.892    
   1334      1    243     63     -0.4910    
   1335      1    244     63     -0.6014    
   1336      1    245     63     -0.3656    
   1337      1    246     63     -0.3387    
   1338      1    247     63     -0.2398    
   1339      1    248     63     -0.1785    
   1340      1    291     63     -0.1099    
   1341      1    292     63     -0.1254    
   1342      1     78     64     -0.1148E-18
   1343      1     79     64     -0.1531E-19
   1344      1     95     64     -0.3087    
   1345      1     96     64     -0.8337    
   1346      1     97     64     -0.3947    
   1347      1    101     64     -0.6636    
   1348      1    102     64     -0.7886    
   1349      1    103     64     -0.8147E-02
   1350      1    104     64     -0.2813E-01
   1351      1    105     64     -0.2036    
   1352      1    106     64     -0.4382    
   1353      1    107     64     -0.9697    
   1354      1    108     64     -0.5285    
   1355      1    112     64      -1.260    
   1356      1    113     64      -1.628    
   1357      1    114     64     -0.1261    
   1358      1    115     64     -0.1707    
   1359      1    116     64      -2.235    
   1360      1    117     64      -1.717    
   1361      1    121     64     -0.8078    
   1362      1    122     64      -1.472    
   1363      1    123     64      -1.455    
   1364      1    124     64      -1.438    
   1365      1    125     64     -0.2076    
   1366      1    126     64     -0.1400E-01
   1367      1    127     64      -1.386    
   1368      1    128     64      -1.559    
   1369      1    129     64      -2.598    
   1370      1    130     64      -2.649    
   1371      1    131     64      -2.699    
   1372      1    132     64      -1.444    
   1373      1    139     64     -0.3380    
   1374      1    140     64      -3.419    
   1375      1    141     64      -2.519    
   1376      1    143     64      -1.330    
   1377      1    144     64      -3.217    
   1378      1    145     64      -1.385    
   1379      1    147     64      -2.150    
   1380      1    148     64      -2.995    
   1381      1    149     64      -2.995    
   1382      1    150     64      -2.910    
   1383      1    154     64      -1.017    
   1384      1    155     64      -2.995    
   1385      1    156     64      -2.995    
   1386      1    157     64      -2.995    
   1387      1    158     64      -1.048    
   1388      1    160     64     -0.8861    
   1389      1    161     64      -1.076    
   1390      1    162     64     -0.3889E-01
   1391      1    165     64     -0.8076    
   1392      1    166     64      -2.971    
   1393      1    167     64      -1.940    
   1394      1    168     64     -0.5451    
   1395      1    169     64      -1.437    
   1396      1    170     64      -2.108    
   1397      1    171     64      -2.131    
   1398      1    172     64      -2.153    
   1399      1    173     64     -0.2330    
   1400      1    174     64     -0.1452    
   1401      1    175     64      -2.971    
   1402      1    176     64      -2.822    
   1403      1    177     64      -2.267    
   1404      1    178     64      -1.465    
   1405      1    182     64      -1.596    
   1406      1    183     64      -2.402    
   1407      1    184     64      -1.804    
   1408      1    185     64      -1.688    
   1409      1    186     64     -0.3264E-01
   1410      1    191     64     -0.1189    
   1411      1    192     64     -0.2523    
   1412      1    193     64     -0.9504E-01
   1413      1    195     64     -0.1553    
   1414      1    196     64     -0.1902    
   1415      1    197     64     -0.1746    
   1416      1    198     64     -0.1480    
   1417      1    246     64     -0.9167E-01
   1418      1    247     64     -0.8227    
   1419      1    248     64     -0.6031    
   1420      1     77     65     -0.8312E-16
   1421      1     78     65     -0.1037E-15
   1422      1     79     65     -0.3979E-17
   1423      1    104     65     -0.1324    
   1424      1    105     65     -0.9697    
   1425      1    106     65     -0.9697    
   1426      1    107     65     -0.9697    
   1427      1    108     65     -0.5360    
   1428      1    115     65     -0.1535    
   1429      1    116     65      -2.235    
   1430      1    117     65      -1.735    
   1431      1    128     65      -1.027    
   1432      1    129     65      -6.573    
   1433      1    130     65      -6.573    
   1434      1    131     65      -6.573    
   1435      1    132     65      -3.503    
   1436      1    147     65      -2.127    
   1437      1    148     65      -2.995    
   1438      1    149     65      -2.995    
   1439      1    150     65      -2.933    
   1440      1    154     65     -0.9937    
   1441      1    155     65      -2.995    
   1442      1    156     65      -2.995    
   1443      1    157     65      -2.995    
   1444      1    158     65      -1.071    
   1445      1    165     65     -0.7850    
   1446      1    166     65      -2.971    
   1447      1    167     65      -1.724    
   1448      1    169     65      -1.709    
   1449      1    170     65      -2.971    
   1450      1    171     65      -2.971    
   1451      1    172     65      -2.971    
   1452      1    173     65     -0.3391    
   1453      1    174     65     -0.1226    
   1454      1    175     65      -2.971    
   1455      1    176     65      -2.971    
   1456      1    177     65      -2.959    
   1457      1    178     65      -1.905    
   1458      1    182     65      -1.970    
   1459      1    183     65      -2.971    
   1460      1    184     65      -2.120    
   1461      1    185     65      -1.917    
   1462      1    186     65     -0.1358    
   1463      1    187     65     -0.8525E-01
   1464      1    195     65     -0.2162    
   1465      1    196     65     -0.3026    
   1466      1    197     65     -0.3010E-01
   1467      1    246     65     -0.8554E-01
   1468      1    247     65     -0.8227    
   1469      1    248     65     -0.6093    
   1470      1    263     65     -0.1554    
   1471      1    264     65     -0.3121    
   1472      1    265     65     -0.1077    
   1473      1    291     65     -0.2423    
   1474      1    292     65     -0.2923    
   1475      1    293     65     -0.2598E-02
   1476      1     77     66     -0.6312E-16
   1477      1     78     66     -0.7823E-16
   1478      1     79     66     -0.3511E-17
   1479      1     84     66     -0.1242    
   1480      1     85     66     -0.3032    
   1481      1     86     66     -0.1320    
   1482      1     91     66     -0.7909E-02
   1483      1     92     66     -0.2062    
   1484      1     93     66     -0.1695    
   1485      1    104     66     -0.6957E-01
   1486      1    105     66     -0.5288    
   1487      1    106     66     -0.6486    
   1488      1    107     66     -0.9697    
   1489      1    108     66     -0.5435    
   1490      1    115     66     -0.6549E-01
   1491      1    116     66      -1.030    
   1492      1    117     66     -0.7931    
   1493      1    127     66      -1.382    
   1494      1    128     66      -1.565    
   1495      1    129     66      -2.374    
   1496      1    130     66      -2.323    
   1497      1    131     66      -2.273    
   1498      1    132     66      -1.202    
   1499      1    147     66      -2.104    
   1500      1    148     66      -2.995    
   1501      1    149     66      -2.995    
   1502      1    150     66      -2.955    
   1503      1    154     66     -0.9709    
   1504      1    155     66      -2.995    
   1505      1    156     66      -2.995    
   1506      1    157     66      -2.995    
   1507      1    158     66      -1.093    
   1508      1    165     66     -0.7624    
   1509      1    166     66      -2.971    
   1510      1    167     66      -1.747    
   1511      1    169     66      -1.686    
   1512      1    170     66      -2.971    
   1513      1    171     66      -2.971    
   1514      1    172     66      -2.971    
   1515      1    173     66     -0.3617    
   1516      1    174     66     -0.1655E-02
   1517      1    175     66     -0.3256E-01
   1518      1    176     66     -0.1009E-01
   1519      1    182     66      -1.947    
   1520      1    183     66      -2.971    
   1521      1    184     66     -0.5620    
   1522      1    186     66      -1.188    
   1523      1    187     66      -1.080    
   1524      1    195     66      -1.524    
   1525      1    196     66      -2.050    
   1526      1    197     66     -0.2072    
   1527      1    246     66     -0.7943E-01
   1528      1    247     66     -0.8227    
   1529      1    248     66     -0.6154    
   1530      1    263     66     -0.2360    
   1531      1    264     66     -0.4758    
   1532      1    265     66     -0.1658    
   1533      1    291     66     -0.2550    
   1534      1    292     66     -0.3053    
   1535      1    293     66     -0.4659E-02
   1536      1    294     66     -0.4589E-02
   1537      1    295     66     -0.3479E-01
   1538      1    296     66     -0.2590E-01
   1539      1     84     67     -0.4161    
   1540      1     85     67      -1.009    
   1541      1     86     67     -0.4365    
   1542      1     91     67     -0.1954E-01
   1543      1     92     67     -0.5818    
   1544      1     93     67     -0.4719    
   1545      1    106     67     -0.2681    
   1546      1    107     67     -0.9697    
   1547      1    108     67     -0.5510    
   1548      1    127     67      -2.203    
   1549      1    128     67      -1.920    
   1550      1    147     67      -2.082    
   1551      1    148     67      -2.995    
   1552      1    149     67      -2.995    
   1553      1    150     67      -2.979    
   1554      1    151     67     -0.1478    
   1555      1    152     67     -0.1421    
   1556      1    154     67     -0.8782    
   1557      1    155     67      -2.757    
   1558      1    156     67      -2.859    
   1559      1    157     67      -2.995    
   1560      1    158     67      -1.116    
   1561      1    160     67     -0.2760    
   1562      1    161     67     -0.3742    
   1563      1    162     67     -0.2515E-01
   1564      1    165     67     -0.7399    
   1565      1    166     67      -2.971    
   1566      1    167     67      -1.770    
   1567      1    169     67      -1.354    
   1568      1    170     67      -2.398    
   1569      1    171     67      -2.802    
   1570      1    172     67      -2.971    
   1571      1    173     67     -0.3841    
   1572      1    176     67     -0.1280    
   1573      1    177     67     -0.7295    
   1574      1    178     67     -0.4981    
   1575      1    182     67      -1.380    
   1576      1    183     67      -2.108    
   1577      1    184     67     -0.4096    
   1578      1    186     67      -1.425    
   1579      1    187     67      -1.323    
   1580      1    195     67     -0.9346    
   1581      1    196     67      -1.254    
   1582      1    197     67     -0.1334    
   1583      1    198     67     -0.3721E-01
   1584      1    199     67     -0.8415    
   1585      1    200     67     -0.6841    
   1586      1    204     67     -0.2930    
   1587      1    205     67     -0.5805    
   1588      1    206     67     -0.7215    
   1589      1    207     67     -0.7994    
   1590      1    208     67     -0.1435    
   1591      1    246     67     -0.7333E-01
   1592      1    247     67     -0.8227    
   1593      1    248     67     -0.6215    
   1594      1    263     67     -0.2627E-01
   1595      1    264     67     -0.5079E-01
   1596      1    265     67     -0.2934    
   1597      1    266     67     -0.4320    
   1598      1    267     67     -0.2962    
   1599      1    268     67     -0.2634    
   1600      1    269     67     -0.1193E-01
   1601      1    294     67     -0.3816E-01
   1602      1    295     67     -0.2879    
   1603      1    296     67     -0.2050    
   1604      1     84     68     -0.1885    
   1605      1     85     68     -0.4582    
   1606      1     86     68     -0.1983    
   1607      1     91     68     -0.1507E-01
   1608      1     92     68     -0.5818    
   1609      1     93     68     -0.4764    
   1610      1     99     68     -0.4102    
   1611      1    100     68     -0.6411    
   1612      1    101     68     -0.1282    
   1613      1    106     68     -0.7641E-01
   1614      1    107     68     -0.2767    
   1615      1    108     68     -0.1552    
[...]
  83891      1    108    258       0.000    
  83892      1    108    259       0.000    
  83893      1    108    260       0.000    
  83894      1    108    261       0.000    
  83895      1    109    241       0.000    
  83896      1    109    242       0.000    
  83897      1    109    243       0.000    
  83898      1    109    245       0.000    
  83899      1    109    247       0.000    
  83900      1    109    250       0.000    
  83901      1    109    252       0.000    
  83902      1    109    255       0.000    
  83903      1    109    258       0.000    
  83904      1    109    259       0.000    
  83905      1    109    260       0.000    
  83906      1    109    294       0.000    
  83907      1    109    339       0.000    
  83908      1    110    244       0.000    
  83909      1    110    245       0.000    
  83910      1    110    246       0.000    
  83911      1    110    249       0.000    
  83912      1    110    252       0.000    
  83913      1    110    255       0.000    
  83914      1    110    257       0.000    
  83915      1    110    295       0.000    
  83916      1    110    332       0.000    
  83917      1    110    333       0.000    
  83918      1    110    338       0.000    
  83919      1    111    246       0.000    
  83920      1    111    249       0.000    
  83921      1    111    252       0.000    
  83922      1    111    254       0.000    
  83923      1    111    256       0.000    
  83924      1    111    271       0.000    
  83925      1    111    285       0.000    
  83926      1    111    286       0.000    
  83927      1    111    295       0.000    
  83928      1    111    332       0.000    
  83929      1    111    338       0.000    
  83930      1    112    247       0.000    
  83931      1    112    249       0.000    
  83932      1    112    251       0.000    
  83933      1    112    252       0.000    
  83934      1    112    253       0.000    
  83935      1    112    254       0.000    
  83936      1    112    255       0.000    
  83937      1    112    271       0.000    
  83938      1    112    284       0.000    
  83939      1    112    285       0.000    
  83940      1    112    295       0.000    
  83941      1    112    333       0.000    
  83942      1    113    248       0.000    
  83943      1    113    249       0.000    
  83944      1    113    250       0.000    
  83945      1    113    255       0.000    
  83946      1    113    270       0.000    
  83947      1    113    277       0.000    
  83948      1    113    278       0.000    
  83949      1    113    283       0.000    
  83950      1    113    295       0.000    
  83951      1    113    298       0.000    
  83952      1    113    299       0.000    
  83953      1    113    322       0.000    
  83954      1    113    332       0.000    
  83955      1    114    254       0.000    
  83956      1    114    262       0.000    
  83957      1    114    263       0.000    
  83958      1    114    269       0.000    
  83959      1    114    270       0.000    
  83960      1    114    276       0.000    
  83961      1    114    283       0.000    
  83962      1    114    291       0.000    
  83963      1    114    296       0.000    
  83964      1    114    297       0.000    
  83965      1    114    298       0.000    
  83966      1    114    323       0.000    
  83967      1    114    333       0.000    
  83968      1    115    254       0.000    
  83969      1    115    261       0.000    
  83970      1    115    270       0.000    
  83971      1    115    275       0.000    
  83972      1    115    276       0.000    
  83973      1    115    283       0.000    
  83974      1    115    291       0.000    
  83975      1    115    297       0.000    
  83976      1    115    298       0.000    
  83977      1    115    304       0.000    
  83978      1    115    306       0.000    
  83979      1    115    323       0.000    
  83980      1    115    324       0.000    
  83981      1    115    333       0.000    
  83982      1    116    254       0.000    
  83983      1    116    255       0.000    
  83984      1    116    260       0.000    
  83985      1    116    261       0.000    
  83986      1    116    270       0.000    
  83987      1    116    271       0.000    
  83988      1    116    272       0.000    
  83989      1    116    273       0.000    
  83990      1    116    274       0.000    
  83991      1    116    283       0.000    
  83992      1    116    291       0.000    
  83993      1    116    298       0.000    
  83994      1    116    299       0.000    
  83995      1    116    304       0.000    
  83996      1    116    306       0.000    
  83997      1    116    325       0.000    
  83998      1    116    326       0.000    
  83999      1    117    255       0.000    
  84000      1    117    256       0.000    
  84001      1    117    257       0.000    
  84002      1    117    258       0.000    
  84003      1    117    259       0.000    
  84004      1    117    267       0.000    
  84005      1    117    268       0.000    
  84006      1    117    269       0.000    
  84007      1    117    282       0.000    
  84008      1    117    291       0.000    
  84009      1    117    299       0.000    
  84010      1    117    305       0.000    
  84011      1    117    306       0.000    
  84012      1    117    312       0.000    
  84013      1    117    313       0.000    
  84014      1    117    327       0.000    
  84015      1    118    256       0.000    
  84016      1    118    258       0.000    
  84017      1    118    267       0.000    
  84018      1    118    281       0.000    
  84019      1    118    282       0.000    
  84020      1    118    291       0.000    
  84021      1    118    298       0.000    
  84022      1    118    305       0.000    
  84023      1    118    312       0.000    
  84024      1    118    323       0.000    
  84025      1    118    327       0.000    
  84026      1    119    256       0.000    
  84027      1    119    257       0.000    
  84028      1    119    267       0.000    
  84029      1    119    281       0.000    
  84030      1    119    291       0.000    
  84031      1    119    298       0.000    
  84032      1    119    305       0.000    
  84033      1    119    312       0.000    
  84034      1    119    324       0.000    
  84035      1    119    327       0.000    
  84036      1    120    257       0.000    
  84037      1    120    260       0.000    
  84038      1    120    261       0.000    
  84039      1    120    262       0.000    
  84040      1    120    266       0.000    
  84041      1    120    267       0.000    
  84042      1    120    280       0.000    
  84043      1    120    291       0.000    
  84044      1    120    298       0.000    
  84045      1    120    300       0.000    
  84046      1    120    306       0.000    
  84047      1    120    312       0.000    
  84048      1    120    325       0.000    
  84049      1    120    326       0.000    
  84050      1    120    327       0.000    
  84051      1    121    257       0.000    
  84052      1    121    258       0.000    
  84053      1    121    259       0.000    
  84054      1    121    263       0.000    
  84055      1    121    264       0.000    
  84056      1    121    266       0.000    
  84057      1    121    270       0.000    
  84058      1    121    280       0.000    
  84059      1    121    291       0.000    
  84060      1    121    298       0.000    
  84061      1    121    299       0.000    
  84062      1    121    300       0.000    
  84063      1    121    305       0.000    
  84064      1    121    311       0.000    
  84065      1    121    312       0.000    
  84066      1    121    326       0.000    
  84067      1    121    327       0.000    
  84068      1    122    263       0.000    
  84069      1    122    265       0.000    
  84070      1    122    271       0.000    
  84071      1    122    272       0.000    
  84072      1    122    278       0.000    
  84073      1    122    279       0.000    
  84074      1    122    291       0.000    
  84075      1    122    298       0.000    
  84076      1    122    305       0.000    
  84077      1    122    311       0.000    
  84078      1    123    263       0.000    
  84079      1    123    273       0.000    
  84080      1    123    278       0.000    
  84081      1    123    291       0.000    
  84082      1    123    295       0.000    
  84083      1    123    299       0.000    
  84084      1    123    305       0.000    
  84085      1    123    310       0.000    
  84086      1    123    326       0.000    
  84087      1    124    264       0.000    
  84088      1    124    272       0.000    
  84089      1    124    274       0.000    
  84090      1    124    278       0.000    
  84091      1    124    291       0.000    
  84092      1    124    295       0.000    
  84093      1    124    300       0.000    
  84094      1    124    304       0.000    
  84095      1    124    310       0.000    
  84096      1    124    326       0.000    
  84097      1    125    265       0.000    
  84098      1    125    267       0.000    
  84099      1    125    268       0.000    
  84100      1    125    271       0.000    
  84101      1    125    274       0.000    
  84102      1    125    277       0.000    
  84103      1    125    291       0.000    
  84104      1    125    295       0.000    
  84105      1    125    300       0.000    
  84106      1    125    301       0.000    
  84107      1    125    302       0.000    
  84108      1    125    303       0.000    
  84109      1    125    304       0.000    
  84110      1    125    310       0.000    
  84111      1    125    325       0.000    
  84112      1    126    266       0.000    
  84113      1    126    267       0.000    
  84114      1    126    271       0.000    
  84115      1    126    274       0.000    
  84116      1    126    277       0.000    
  84117      1    126    291       0.000    
  84118      1    126    295       0.000    
  84119      1    126    300       0.000    
  84120      1    126    310       0.000    
  84121      1    126    312       0.000    
  84122      1    127    267       0.000    
  84123      1    127    271       0.000    
  84124      1    127    273       0.000    
  84125      1    127    277       0.000    
  84126      1    127    286       0.000    
  84127      1    127    290       0.000    
  84128      1    127    294       0.000    
  84129      1    127    299       0.000    
  84130      1    127    310       0.000    
  84131      1    127    311       0.000    
  84132      1    127    324       0.000    
  84133      1    128    267       0.000    
  84134      1    128    270       0.000    
  84135      1    128    271       0.000    
  84136      1    128    273       0.000    
  84137      1    128    276       0.000    
  84138      1    128    286       0.000    
  84139      1    128    287       0.000    
  84140      1    128    288       0.000    
  84141      1    128    290       0.000    
  84142      1    128    294       0.000    
  84143      1    128    299       0.000    
  84144      1    128    303       0.000    
  84145      1    128    309       0.000    
  84146      1    128    310       0.000    
  84147      1    128    311       0.000    
  84148      1    128    323       0.000    
  84149      1    129    268       0.000    
  84150      1    129    269       0.000    
  84151      1    129    271       0.000    
  84152      1    129    272       0.000    
  84153      1    129    273       0.000    
  84154      1    129    276       0.000    
  84155      1    129    277       0.000    
  84156      1    129    289       0.000    
  84157      1    129    290       0.000    
  84158      1    129    293       0.000    
  84159      1    129    299       0.000    
  84160      1    129    300       0.000    
  84161      1    129    301       0.000    
  84162      1    129    302       0.000    
  84163      1    129    305       0.000    
  84164      1    129    307       0.000    
  84165      1    129    308       0.000    
  84166      1    129    311       0.000    
  84167      1    130    273       0.000    
  84168      1    130    274       0.000    
  84169      1    130    276       0.000    
  84170      1    130    277       0.000    
  84171      1    130    288       0.000    
  84172      1    130    289       0.000    
  84173      1    130    290       0.000    
  84174      1    130    291       0.000    
  84175      1    130    292       0.000    
  84176      1    130    299       0.000    
  84177      1    130    303       0.000    
  84178      1    130    304       0.000    
  84179      1    130    305       0.000    
  84180      1    130    306       0.000    
  84181      1    130    310       0.000    
  84182      1    131    274       0.000    
  84183      1    131    277       0.000    
  84184      1    131    287       0.000    
  84185      1    131    289       0.000    
  84186      1    131    292       0.000    
  84187      1    131    293       0.000    
  84188      1    131    294       0.000    
  84189      1    131    299       0.000    
  84190      1    131    303       0.000    
  84191      1    131    310       0.000    
  84192      1    132    274       0.000    
  84193      1    132    276       0.000    
  84194      1    132    283       0.000    
  84195      1    132    288       0.000    
  84196      1    132    295       0.000    
  84197      1    132    296       0.000    
  84198      1    132    297       0.000    
  84199      1    132    299       0.000    
  84200      1    132    301       0.000    
  84201      1    132    302       0.000    
  84202      1    132    310       0.000    
  84203      1    133    275       0.000    
  84204      1    133    276       0.000    
  84205      1    133    283       0.000    
  84206      1    133    288       0.000    
  84207      1    133    297       0.000    
  84208      1    133    298       0.000    
  84209      1    133    300       0.000    
  84210      1    133    301       0.000    
  84211      1    133    304       0.000    
  84212      1    133    310       0.000    
  84213      1    133    317       0.000    
  84214      1    134    275       0.000    
  84215      1    134    276       0.000    
  84216      1    134    284       0.000    
  84217      1    134    289       0.000    
  84218      1    134    299       0.000    
  84219      1    134    300       0.000    
  84220      1    134    304       0.000    
  84221      1    134    310       0.000    
  84222      1    134    315       0.000    
  84223      1    134    316       0.000    
  84224      1    135    277       0.000    
  84225      1    135    278       0.000    
  84226      1    135    284       0.000    
  84227      1    135    288       0.000    
  84228      1    135    301       0.000    
  84229      1    135    302       0.000    
  84230      1    135    303       0.000    
  84231      1    135    305       0.000    
  84232      1    135    310       0.000    
  84233      1    135    313       0.000    
  84234      1    135    314       0.000    
  84235      1    136    279       0.000    
  84236      1    136    282       0.000    
  84237      1    136    285       0.000    
  84238      1    136    286       0.000    
  84239      1    136    287       0.000    
  84240      1    136    301       0.000    
  84241      1    136    304       0.000    
  84242      1    136    308       0.000    
  84243      1    136    309       0.000    
  84244      1    136    310       0.000    
  84245      1    136    312       0.000    
  84246      1    137    280       0.000    
  84247      1    137    282       0.000    
  84248      1    137    285       0.000    
  84249      1    137    302       0.000    
  84250      1    137    303       0.000    
  84251      1    137    306       0.000    
  84252      1    137    307       0.000    
  84253      1    137    309       0.000    
  84254      1    137    311       0.000    
  84255      1    138    281       0.000    
  84256      1    138    282       0.000    
  84257      1    138    284       0.000    
  84258      1    138    302       0.000    
  84259      1    138    307       0.000    
  84260      1    139    282       0.000    
  84261      1    139    283       0.000    
  84262      1    139    284       0.000    
  84263      1    139    302       0.000    
  84264      1    139    303       0.000    
  84265      1    139    305       0.000    
  84266      1    139    306       0.000    
  84267      1    140    302       0.000    
  84268      1    140    303       0.000    
  84269      1    140    304       0.000    
  84270      1    140    305       0.000    
  84271      1    140    306       0.000    
  84272      1    140    307       0.000    
  84273      1    141    302       0.000    

  84273 WELLS

 331676 DRAINS



                           RECHARGE
 READING ON UNIT   19 WITH FORMAT: (586E15.6)          
 
 SOLVING FOR HEAD 

    ------------------------------------------------
       NWT REQUIRED           12 OUTER ITERATIONS 
       AND A TOTAL OF         18 INNER ITERATIONS.
    ------------------------------------------------

 OUTPUT CONTROL FOR STRESS PERIOD    1   TIME STEP    1
    SAVE HEAD FOR ALL LAYERS

 HEAD WILL BE SAVED ON UNIT   51 AT END OF TIME STEP    1, STRESS PERIOD    1
1
  VOLUMETRIC BUDGET FOR ENTIRE MODEL AT END OF TIME STEP    1, STRESS PERIOD   1
  ------------------------------------------------------------------------------

     CUMULATIVE VOLUMES      L**3       RATES FOR THIS TIME STEP      L**3/T
     ------------------                 ------------------------

           IN:                                      IN:
           ---                                      ---
             STORAGE =    14386753.0000               STORAGE =    14386753.0000
       CONSTANT HEAD =           0.0000         CONSTANT HEAD =           0.0000
               WELLS =           0.0000                 WELLS =           0.0000
              DRAINS =           0.0000                DRAINS =           0.0000
            RECHARGE =     9999642.0000              RECHARGE =     9999642.0000

            TOTAL IN =    24386396.0000              TOTAL IN =    24386396.0000

          OUT:                                     OUT:
          ----                                     ----
             STORAGE =    11464725.0000               STORAGE =    11464725.0000
       CONSTANT HEAD =           0.0000         CONSTANT HEAD =           0.0000
               WELLS =     7103702.0000                 WELLS =     7103702.0000
              DRAINS =     5818251.0000                DRAINS =     5818251.0000
            RECHARGE =           0.0000              RECHARGE =           0.0000

           TOTAL OUT =    24386680.0000             TOTAL OUT =    24386680.0000

            IN - OUT =        -284.0000              IN - OUT =        -284.0000

 PERCENT DISCREPANCY =          -0.00     PERCENT DISCREPANCY =          -0.00






         TIME SUMMARY AT END OF TIME STEP    1 IN STRESS PERIOD    1
                    SECONDS     MINUTES      HOURS       DAYS        YEARS
                    -----------------------------------------------------------
   TIME STEP LENGTH  86400.      1440.0      24.000      1.0000     2.73785E-03
 STRESS PERIOD TIME  86400.      1440.0      24.000      1.0000     2.73785E-03
         TOTAL TIME  86400.      1440.0      24.000      1.0000     2.73785E-03
1

 Run end date and time (yyyy/mm/dd hh:mm:ss): 2020/11/04 16:46:19
 Elapsed run time:  5.832 Seconds

