                                  MODFLOW-NWT-SWR1 
      U.S. GEOLOGICAL SURVEY MODULAR FINITE-DIFFERENCE GROUNDWATER-FLOW MODEL
                             VERSION 1.1.4 4/01/2018
                    BASED ON MODFLOW-2005 VERSION 1.12.00 02/03/2017

 LIST FILE: C:/GitHub/FUSE/Modflow/output/Bhima_transient.list
                         UNIT    2

 OPENING C:/GitHub/FUSE/Modflow/output/Bhima_transient.dis
 FILE TYPE:DIS   UNIT   11   STATUS:OLD    
 FORMAT:FORMATTED              ACCESS:SEQUENTIAL          

 OPENING C:/GitHub/FUSE/Modflow/output/Bhima_transient.bas
 FILE TYPE:BAS6   UNIT   13   STATUS:OLD    
 FORMAT:FORMATTED              ACCESS:SEQUENTIAL          

 OPENING C:/GitHub/FUSE/Modflow/output/Bhima_transient.upw
 FILE TYPE:UPW   UNIT   31   STATUS:OLD    
 FORMAT:FORMATTED              ACCESS:SEQUENTIAL          

 OPENING C:/GitHub/FUSE/Modflow/output/Bhima_transient.nwt
 FILE TYPE:NWT   UNIT   32   STATUS:OLD    
 FORMAT:FORMATTED              ACCESS:SEQUENTIAL          

 OPENING C:/GitHub/FUSE/Modflow/output/Bhima_transient.drn
 FILE TYPE:DRN   UNIT   21   STATUS:OLD    
 FORMAT:FORMATTED              ACCESS:SEQUENTIAL          

 OPENING C:/GitHub/FUSE/Modflow/output/Bhima_transient.wel
 FILE TYPE:WEL   UNIT   20   STATUS:OLD    
 FORMAT:FORMATTED              ACCESS:SEQUENTIAL          

 OPENING C:/GitHub/FUSE/Modflow/output/Bhima_transient.rch
 FILE TYPE:RCH   UNIT   19   STATUS:OLD    
 FORMAT:FORMATTED              ACCESS:SEQUENTIAL          

 OPENING C:/GitHub/FUSE/Modflow/output/Bhima_transient.oc
 FILE TYPE:OC   UNIT   14   STATUS:OLD    
 FORMAT:FORMATTED              ACCESS:SEQUENTIAL          

 OPENING C:/GitHub/FUSE/Modflow/output/Bhima_transient.hds
 FILE TYPE:DATA(BINARY)   UNIT   51   STATUS:REPLACE
 FORMAT:BINARY                 ACCESS:SEQUENTIAL          

 OPENING C:/GitHub/FUSE/Modflow/output/Bhima_transient.out
 FILE TYPE:DATA   UNIT   50   STATUS:UNKNOWN
 FORMAT:FORMATTED              ACCESS:SEQUENTIAL          

 BAS -- BASIC PACKAGE, VERSION 1.1.4, 4/01/2018 INPUT READ FROM UNIT   13
 
 MODFLOW was compiled using mixed precision
 Precision of REAL variables:           6
 Precision of DOUBLE PRECISION variables:          15

 DISCRETIZATION INPUT DATA READ FROM UNIT   11
 # DIS package for  MODFLOW-NWT, generated by Flopy.
    1 LAYERS       158 ROWS       342 COLUMNS
    1 STRESS PERIOD(S) IN SIMULATION
 MODEL TIME UNIT IS DAYS
 MODEL LENGTH UNIT IS METERS
  Confining bed flag for each layer:
   0

                     DELR =   500.000    

                     DELC =   500.000    



           TOP ELEVATION OF LAYER 1
 READING ON UNIT   11 WITH FORMAT: (342E15.6)          



             MODEL LAYER BOTTOM EL. FOR LAYER   1
 READING ON UNIT   11 WITH FORMAT: (342E15.6)          


 STRESS PERIOD     LENGTH       TIME STEPS     MULTIPLIER FOR DELT    SS FLAG
 ----------------------------------------------------------------------------
        1         1.000000          1                    1.000         TR

 TRANSIENT SIMULATION



 
 # BAS6 package for  MODFLOW-NWT, generated by Flopy.                            
 THE FREE FORMAT OPTION HAS BEEN SELECTED



                     BOUNDARY ARRAY FOR LAYER   1
 READING ON UNIT   13 WITH FORMAT: (342I10)            

 AQUIFER HEAD WILL BE SET TO  -999.99     AT ALL NO-FLOW NODES (IBOUND=0).



                       INITIAL HEAD FOR LAYER   1
 READING ON UNIT   13 WITH FORMAT: (342E15.6)          
 # OC package for  MODFLOW-NWT, generated by Flopy.

 OUTPUT CONTROL IS SPECIFIED ONLY AT TIME STEPS FOR WHICH OUTPUT IS DESIRED
 COMPACT CELL-BY-CELL BUDGET FILES WILL BE WRITTEN
 AUXILIARY DATA WILL BE SAVED IN CELL-BY-CELL BUDGET FILES
 HEAD PRINT FORMAT CODE IS   0    DRAWDOWN PRINT FORMAT CODE IS   0
 HEADS WILL BE SAVED ON UNIT   51    DRAWDOWNS WILL BE SAVED ON UNIT    0
 # NWT package for  MODFLOW-NWT, generated by Flopy.

 NWT1 -- Newton Solver, VERSION 1.1.4, 4/01/2018
         INPUT READ FROM UNIT 32

 SIMPLE OPTION:
 DEFAULT SOLVER INPUT VALUES REFLECT NEARLY LINEAR MODEL
 ***GMRES linear solver will be used***
 
   CONVERGENCE CRITERION OF   0.100000E-01 FOR HEAD SOLUTION
   AND A TOLERANCE OF   0.500000E+03 FOR FLOW SOLUTION AND 
   A MAXIMUM OF   100 OUTER ITERATIONS. 


   D-B-D REDUCTION FACTOR OF    0.970000E+00 AND 
   A D-B-D INCREASE FACTOR OF    0.100000E-03 AND 
   A D-B-D RELAXATION OF    0.000000E+00 AND 
   A MOMENTUM FACTOR OF    0.000000E+00 .


 ***BACKTRACKING IS INACTIVE***
 GMRES -- LINEAR SOLUTION BY GMRES PACKAGE 
     adapted for HYDROTHERM by Kipp and others (2008)
     using software originally developed by Saad (1990) 32
     using algorithms described in Saad (2003)

 UPW1 -- UPSTREAM WEIGHTING FLOW PACKAGE, VERSION 1.1.4, 4/01/2018
         INPUT READ FROM UNIT 31

 # UPW package for  MODFLOW-NWT, generated by Flopy.
 No named parameters

   LAYER FLAGS:
 LAYER       LAYTYP          LAYAVG    CHANI           LAYVKA           LAYWET
 ---------------------------------------------------------------------------
    1             1             0     1.000E+00             1             0

   INTERPRETATION OF LAYER FLAGS:
                        INTERBLOCK     HORIZONTAL    DATA IN
         LAYER TYPE   TRANSMISSIVITY   ANISOTROPY   ARRAY VKA   WETTABILITY
 LAYER   (LAYTYP)        (LAYAVG)      (CHANI)     (LAYVKA)       (LAYWET)
 ---------------------------------------------------------------------------
    1   CONVERTIBLE      HARMONIC     1.000E+00    ANISOTROPY  NON-WETTABLE



              HYD. COND. ALONG ROWS FOR LAYER   1
 READING ON UNIT   31 WITH FORMAT: (342E15.6)          

  HORIZ. TO VERTICAL ANI. =   5.00000     FOR LAYER   1



                   SPECIFIC STORAGE FOR LAYER   1
 READING ON UNIT   31 WITH FORMAT: (342E15.6)          



                     SPECIFIC YIELD FOR LAYER   1
 READING ON UNIT   31 WITH FORMAT: (342E15.6)          

 WEL -- WELL PACKAGE FOR NWT VERSION 1.1.4,  4/01/2018 INPUT READ FROM UNIT   20
 # WEL package for  MODFLOW-NWT, generated by Flopy.
 No named parameters
 MAXIMUM OF  12376 ACTIVE WELLS AT ONE TIME
 No named parameters
 
 NEGATIVE PUMPING RATES WILL BE REDUCED IF HEAD 
 FALLS WITHIN THE INTERVAL PHIRAMP TIMES THE CELL 
 THICKNESS. THE VALUE SPECIFIED FOR PHIRAMP IS  0.10000E+00
 WELLS WITH REDUCED PUMPING WILL BE REPORTED TO FILE UNIT NUMBER   50


     0 Well parameters

 DRN -- DRAIN PACKAGE, VERSION 7, 5/2/2005 INPUT READ FROM UNIT   21
 # DRN package for  MODFLOW-NWT, generated by Flopy.
 No named parameters
 MAXIMUM OF  54036 ACTIVE DRAINS AT ONE TIME
 LISTS OF DRAIN CELLS WILL NOT BE PRINTED


     0 Drain parameters

 RCH -- RECHARGE PACKAGE, VERSION 7, 5/2/2005 INPUT READ FROM UNIT   19
 # RCH package for  MODFLOW-NWT, generated by Flopy.
 No named parameters
 OPTION 3 -- RECHARGE TO HIGHEST ACTIVE NODE IN EACH VERTICAL COLUMN


     0 Recharge parameters
1
                            STRESS PERIOD NO.    1, LENGTH =   1.000000    
                            -----------------------------------------------

                              NUMBER OF TIME STEPS =     1

                               MULTIPLIER FOR DELT =     1.000

                            INITIAL TIME STEP SIZE =   1.000000    

 WELL NO.  LAYER   ROW   COL   STRESS RATE         
 --------------------------------------------------
      1      1     29      2      -2.000    
      2      1     30      2      -2.000    
      3      1     31      2      -4.000    
      4      1     29      3      -2.000    
      5      1     30      3      -2.000    
      6      1     31      3      -4.000    
      7      1     29      4      -2.000    
      8      1     30      4      -2.000    
      9      1     32      4      -2.000    
     10      1     33      4      -2.000    
     11      1     34      4      -2.000    
     12      1     35      4      -2.000    
     13      1     43      4      -2.470    
     14      1     44      4      -2.470    
     15      1     45      4      -2.470    
     16      1     46      4      -2.470    
     17      1     29      5      -2.000    
     18      1     30      5      -2.000    
     19      1     32      5      -2.000    
     20      1     33      5      -2.000    
     21      1     34      5      -2.000    
     22      1     35      5      -2.000    
     23      1     43      5      -2.470    
     24      1     44      5      -2.470    
     25      1     45      5      -2.470    
     26      1     46      5      -2.470    
     27      1     29      6      -2.000    
     28      1     30      6      -2.000    
     29      1     32      6      -2.000    
     30      1     33      6      -2.000    
     31      1     34      6      -2.000    
     32      1     35      6      -2.000    
     33      1     36      6      -2.000    
     34      1     37      6      -2.000    
     35      1     40      6      -2.469    
     36      1     41      6      -2.469    
     37      1     42      6      -4.939    
     38      1     45      6      -2.470    
     39      1     46      6      -2.470    
     40      1     29      7      -2.000    
     41      1     30      7      -2.000    
     42      1     32      7      -2.000    
     43      1     33      7      -2.000    
     44      1     34      7      -2.000    
     45      1     35      7      -2.000    
     46      1     36      7      -2.000    
     47      1     37      7      -2.000    
     48      1     40      7      -2.469    
     49      1     41      7      -2.469    
     50      1     42      7      -4.939    
     51      1     45      7      -2.470    
     52      1     46      7      -2.470    
     53      1     27      8      -2.000    
     54      1     28      8      -2.000    
     55      1     29      8      -2.000    
     56      1     30      8      -2.000    
     57      1     32      8      -4.001    
     58      1     33      8      -4.001    
     59      1     34      8      -4.001    
     60      1     35      8      -4.001    
     61      1     36      8      -4.001    
     62      1     37      8      -4.001    
     63      1     40      8      -4.939    
     64      1     41      8      -4.939    
     65      1     42      8      -9.878    
     66      1     43      8     -0.4939    
     67      1     44      8     -0.4939    
     68      1     27      9      -2.000    
     69      1     28      9      -2.000    
     70      1     29      9      -2.000    
     71      1     30      9      -2.000    
     72      1     32      9      -2.000    
     73      1     33      9      -2.000    
     74      1     34      9      -2.000    
     75      1     35      9      -2.000    
     76      1     36      9      -2.000    
     77      1     37      9      -2.000    
     78      1     38      9      -2.001    
     79      1     39      9      -2.001    
     80      1     42      9      -4.939    
     81      1     43      9      -2.470    
     82      1     44      9      -2.470    
     83      1     25     10      -4.000    
     84      1     26     10      -4.000    
     85      1     27     10      -4.000    
     86      1     28     10      -4.000    
     87      1     32     10      -2.000    
     88      1     33     10      -2.000    
     89      1     34     10      -2.000    
     90      1     35     10      -2.000    
     91      1     36     10      -2.000    
     92      1     37     10      -2.000    
     93      1     38     10      -2.001    
     94      1     39     10      -2.001    
     95      1     42     10      -4.939    
     96      1     43     10      -2.470    
     97      1     44     10      -2.470    
     98      1     25     11      -2.000    
     99      1     26     11      -2.000    
    100      1     27     11      -2.000    
    101      1     28     11      -2.000    
    102      1     31     11     -0.3430    
    103      1     32     11      -2.000    
    104      1     33     11      -2.000    
    105      1     34     11      -2.000    
    106      1     35     11      -2.000    
    107      1     43     11      -3.293    
    108      1     44     11      -3.293    
    109      1     45     11      -2.470    
    110      1     46     11      -2.470    
    111      1     25     12      -2.000    
    112      1     26     12      -2.000    
    113      1     27     12      -2.000    
    114      1     28     12      -2.000    
    115      1     31     12     -0.3430    
    116      1     32     12      -2.000    
    117      1     33     12      -2.000    
    118      1     34     12      -2.000    
    119      1     35     12      -2.000    
    120      1     44     12      -3.293    
    121      1     45     12      -2.470    
    122      1     46     12      -2.470    
    123      1     23     13      -5.562    
    124      1     24     13      -5.562    
    125      1     25     13      -5.562    
    126      1     26     13      -5.562    
    127      1     27     13      -5.562    
    128      1     28     13      -5.562    
    129      1     31     13     -0.7387    
    130      1     32     13      -5.563    
    131      1     33     13      -5.563    
    132      1     34     13      -5.564    
    133      1     35     13      -5.564    
    134      1     38     13      -5.564    
    135      1     39     13      -5.564    
    136      1     40     13      -2.434    
    137      1     41     13      -2.434    
    138      1     42     13      -2.434    
    139      1     43     13      -2.434    
    140      1     47     13      -2.434    
    141      1     48     13      -2.434    
    142      1     23     14      -5.562    
    143      1     24     14      -5.562    
    144      1     25     14      -5.562    
    145      1     26     14      -5.562    
    146      1     27     14      -5.562    
    147      1     28     14      -5.562    
    148      1     31     14     -0.7387    
    149      1     32     14      -5.563    
    150      1     33     14      -5.563    
    151      1     34     14      -5.564    
    152      1     35     14      -5.564    
    153      1     38     14      -5.564    
    154      1     39     14      -5.564    
    155      1     40     14      -2.434    
    156      1     41     14      -2.434    
    157      1     42     14      -2.434    
    158      1     43     14      -2.434    
    159      1     47     14      -2.434    
    160      1     48     14      -2.434    
    161      1     21     15      -5.562    
    162      1     22     15      -5.562    
    163      1     27     15      -5.562    
    164      1     28     15      -5.562    
    165      1     31     15     -0.6105    
    166      1     32     15      -5.563    
    167      1     33     15      -5.563    
    168      1     34     15      -5.564    
    169      1     35     15      -5.564    
    170      1     36     15      -5.564    
    171      1     37     15      -5.564    
    172      1     40     15      -4.868    
    173      1     41     15      -4.868    
    174      1     42     15      -4.868    
    175      1     43     15      -4.868    
    176      1     44     15      -9.737    
    177      1     47     15      -4.869    
    178      1     48     15      -4.869    
    179      1     51     15      -4.869    
    180      1     52     15      -4.869    
    181      1     21     16      -5.562    
    182      1     22     16      -5.562    
    183      1     27     16      -5.562    
    184      1     28     16      -5.562    
    185      1     31     16     -0.6105    
    186      1     32     16      -5.563    
    187      1     33     16      -5.563    
    188      1     34     16      -5.564    
    189      1     35     16      -5.564    
    190      1     36     16      -5.564    
    191      1     37     16      -5.564    
    192      1     38     16      -5.564    
    193      1     39     16      -5.564    
    194      1     44     16     -0.4868    
    195      1     47     16      -2.434    
    196      1     48     16      -2.434    
    197      1     51     16     -0.2258    
    198      1     52     16     -0.2258    
    199      1     21     17      -11.12    
    200      1     22     17      -11.12    
    201      1     23     17      -11.12    
    202      1     24     17      -11.12    
    203      1     27     17      -11.12    
    204      1     28     17      -11.12    
    205      1     34     17      -11.13    
    206      1     35     17      -11.13    
    207      1     36     17      -11.13    
    208      1     37     17      -11.13    
    209      1     38     17      -5.564    
    210      1     39     17      -5.564    
    211      1     44     17     -0.4868    
    212      1     47     17      -2.434    
    213      1     48     17      -2.434    
    214      1     51     17     -0.2258    
    215      1     52     17     -0.2258    
    216      1     21     18      -5.562    
    217      1     22     18      -5.562    
    218      1     31     18     -0.9286    
    219      1     32     18      -5.563    
    220      1     33     18      -5.563    
    221      1     34     18      -5.564    
    222      1     35     18      -5.564    
    223      1     36     18      -5.564    
    224      1     37     18      -5.564    
    225      1     38     18      -5.564    
    226      1     39     18      -5.564    
    227      1     42     18      -2.434    
    228      1     43     18      -2.434    
    229      1     47     18      -2.434    
    230      1     48     18      -2.434    
    231      1     21     19      -5.562    
    232      1     22     19      -5.562    
    233      1     31     19     -0.9286    
    234      1     32     19      -5.563    
    235      1     33     19      -5.563    
    236      1     34     19      -5.564    
    237      1     35     19      -5.564    
    238      1     36     19      -5.564    
    239      1     37     19      -5.564    
    240      1     38     19      -5.564    
    241      1     39     19      -5.564    
    242      1     42     19      -2.434    
    243      1     43     19      -2.434    
    244      1     47     19      -2.434    
    245      1     48     19      -2.434    
    246      1     21     20      -5.562    
    247      1     22     20      -5.562    
    248      1     23     20      -5.562    
    249      1     24     20      -5.562    
    250      1     29     20     -0.4104E-01
    251      1     30     20     -0.4104E-01
    252      1     31     20      -7.417    
    253      1     32     20      -7.418    
    254      1     33     20      -7.418    
    255      1     34     20      -5.564    
    256      1     35     20      -5.564    
    257      1     36     20      -5.564    
    258      1     37     20      -5.564    
    259      1     38     20      -5.564    
    260      1     39     20      -5.564    
    261      1     40     20      -2.434    
    262      1     41     20      -2.434    
    263      1     47     20      -2.434    
    264      1     48     20      -2.434    
    265      1     49     20     -0.1767    
    266      1     50     20     -0.1767    
    267      1     53     20      -2.435    
    268      1     54     20      -2.435    
    269      1     73     20      -3.654    
    270      1     74     20      -3.654    
    271      1     21     21      -5.562    
    272      1     22     21      -5.562    
    273      1     23     21      -5.562    
    274      1     24     21      -5.562    
    275      1     29     21     -0.4104E-01
    276      1     30     21     -0.4104E-01
    277      1     31     21      -7.417    
    278      1     32     21      -7.417    
    279      1     33     21      -7.418    
    280      1     34     21      -5.564    
    281      1     35     21      -5.564    
    282      1     36     21      -5.564    
    283      1     37     21      -5.564    
    284      1     38     21      -5.564    
    285      1     39     21      -5.564    
    286      1     40     21      -2.434    
    287      1     41     21      -2.434    
    288      1     47     21      -2.434    
    289      1     48     21      -2.434    
    290      1     49     21     -0.1767    
    291      1     50     21     -0.1767    
    292      1     53     21      -2.435    
    293      1     54     21      -2.435    
    294      1     73     21      -3.654    
    295      1     74     21      -3.654    
    296      1     76     21      -4.872    
    297      1     77     21      -1.359    
    298      1     78     21      -1.359    
    299      1     79     21      -2.718    
    300      1     21     22      -5.562    
    301      1     22     22      -5.562    
    302      1     29     22     -0.1873    
    303      1     30     22     -0.1873    
    304      1     33     22      -11.13    
    305      1     34     22      -5.564    
    306      1     35     22      -5.564    
    307      1     38     22      -5.564    
    308      1     39     22      -5.564    
    309      1     40     22      -2.434    
    310      1     41     22      -2.434    
    311      1     44     22      -9.737    
    312      1     47     22      -4.869    
    313      1     48     22      -4.869    
    314      1     49     22      -4.869    
    315      1     50     22      -4.869    
    316      1     53     22      -4.870    
    317      1     54     22      -4.870    
    318      1     71     22      -7.308    
    319      1     72     22      -7.308    
    320      1     75     22      -4.872    
    321      1     76     22      -4.872    
    322      1     77     22      -1.359    
    323      1     78     22      -1.359    
    324      1     79     22      -2.718    
    325      1     21     23      -5.562    
    326      1     22     23      -5.562    
    327      1     29     23     -0.1873    
    328      1     30     23     -0.1873    
    329      1     33     23      -11.13    
    330      1     34     23      -5.564    
    331      1     35     23      -5.564    
    332      1     38     23      -5.564    
    333      1     39     23      -5.564    
    334      1     40     23      -2.434    
    335      1     41     23      -2.434    
    336      1     49     23      -2.435    
    337      1     50     23      -2.435    
    338      1     71     23      -3.654    
    339      1     72     23      -3.654    
    340      1     75     23      -3.654    
    341      1     76     23      -3.654    
    342      1     77     23      -1.359    
    343      1     78     23      -1.359    
    344      1     80     23      -1.359    
    345      1     81     23      -1.359    
    346      1     82     23      -1.359    
    347      1     83     23      -1.359    
    348      1     21     24      -11.12    
    349      1     22     24      -11.12    
    350      1     23     24      -11.12    
    351      1     24     24      -11.12    
    352      1     25     24      -11.12    
    353      1     26     24      -11.12    
    354      1     31     24      -1.113    
    355      1     32     24      -1.113    
    356      1     33     24      -22.25    
    357      1     34     24      -11.13    
    358      1     35     24      -11.13    
    359      1     38     24      -11.13    
    360      1     39     24      -11.13    
    361      1     40     24      -4.868    
    362      1     41     24      -4.868    
    363      1     42     24      -4.868    
    364      1     43     24      -4.868    
    365      1     49     24      -2.435    
    366      1     50     24      -2.435    
    367      1     71     24      -3.654    
    368      1     72     24      -3.654    
    369      1     75     24      -3.654    
    370      1     76     24      -3.654    
    371      1     77     24      -1.359    
    372      1     78     24      -1.359    
    373      1     80     24      -1.359    
    374      1     81     24      -1.359    
    375      1     82     24      -1.359    
    376      1     83     24      -1.359    
    377      1     21     25      -5.562    
    378      1     22     25      -5.562    
    379      1     23     25      -5.562    
    380      1     24     25      -5.562    
    381      1     25     25      -5.562    
    382      1     26     25      -5.562    
    383      1     31     25      -5.563    
    384      1     32     25      -5.563    
    385      1     33     25      -11.13    
    386      1     34     25      -5.564    
    387      1     35     25      -5.564    
    388      1     40     25      -2.434    
    389      1     41     25      -2.434    
    390      1     44     25      -4.868    
    391      1     49     25      -2.435    
    392      1     50     25      -2.435    
    393      1     51     25      -2.435    
    394      1     52     25      -2.435    
    395      1     55     25      -2.435    
    396      1     56     25      -2.435    
    397      1     69     25      -3.654    
    398      1     70     25      -3.654    
    399      1     71     25      -3.654    
    400      1     72     25      -3.654    
    401      1     75     25      -3.654    
    402      1     76     25      -3.654    
    403      1     79     25      -1.812    
    404      1     80     25      -1.812    
    405      1     81     25      -1.812    
    406      1     21     26      -5.562    
    407      1     22     26      -5.562    
    408      1     23     26      -5.562    
    409      1     24     26      -5.562    
    410      1     25     26      -5.562    
    411      1     26     26      -5.562    
    412      1     31     26      -5.563    
    413      1     32     26      -5.563    
    414      1     33     26      -11.13    
    415      1     34     26      -5.564    
    416      1     35     26      -5.564    
    417      1     40     26      -2.434    
    418      1     41     26      -2.434    
    419      1     44     26      -4.868    
    420      1     49     26      -2.435    
    421      1     50     26      -2.435    
    422      1     51     26      -2.435    
    423      1     52     26      -2.435    
    424      1     55     26      -2.435    
    425      1     56     26      -2.435    
    426      1     69     26      -3.654    
    427      1     70     26      -3.654    
    428      1     71     26      -3.654    
    429      1     72     26      -3.654    
    430      1     75     26      -3.654    
    431      1     76     26      -3.654    
    432      1     79     26      -1.812    
    433      1     80     26      -1.812    
    434      1     81     26      -1.812    
    435      1     20     27      -15.14    
    436      1     21     27      -11.72    
    437      1     22     27      -11.72    
    438      1     25     27      -5.562    
    439      1     26     27      -5.562    
    440      1     31     27      -5.563    
    441      1     32     27      -5.563    
    442      1     33     27      -11.13    
    443      1     34     27     -0.5564    
    444      1     35     27     -0.5564    
    445      1     36     27      -5.564    
    446      1     37     27      -5.564    
    447      1     40     27      -2.434    
    448      1     41     27      -2.434    
    449      1     45     27      -2.434    
    450      1     46     27      -2.434    
    451      1     51     27     -0.2200    
    452      1     52     27     -0.2200    
    453      1     55     27      -2.435    
    454      1     56     27      -2.435    
    455      1     66     27      -3.654    
    456      1     67     27      -3.654    
    457      1     68     27      -7.307    
    458      1     71     27      -3.654    
    459      1     72     27      -3.654    
    460      1     75     27      -3.654    
    461      1     76     27      -3.654    
    462      1     81     27      -2.718    
    463      1     82     27      -1.359    
    464      1     83     27      -1.359    
    465      1     84     27      -2.718    
    466      1     85     27      -2.718    
    467      1     20     28      -15.14    
    468      1     21     28      -11.72    
    469      1     22     28      -11.72    
    470      1     25     28      -5.562    
    471      1     26     28      -5.562    
    472      1     31     28      -5.563    
    473      1     32     28      -5.563    
    474      1     33     28      -11.13    
    475      1     34     28     -0.5564    
    476      1     35     28     -0.5564    
    477      1     36     28      -5.564    
    478      1     37     28      -5.564    
    479      1     40     28      -2.434    
    480      1     41     28      -2.434    
    481      1     45     28      -2.434    
    482      1     46     28      -2.434    
    483      1     51     28     -0.2200    
    484      1     52     28     -0.2200    
    485      1     55     28      -2.435    
    486      1     56     28      -2.435    
    487      1     66     28      -3.654    
    488      1     67     28      -3.654    
    489      1     68     28      -7.307    
    490      1     71     28      -3.654    
    491      1     72     28      -3.654    
    492      1     75     28      -3.654    
    493      1     76     28      -3.654    
    494      1     81     28      -2.718    
    495      1     82     28      -1.359    
    496      1     83     28      -1.359    
    497      1     84     28      -1.359    
    498      1     85     28      -1.359    
    499      1     86     28      -1.359    
    500      1     87     28      -1.359    
    501      1     20     29      -10.09    
    502      1     21     29      -7.416    
    503      1     22     29      -7.416    
    504      1     29     29     -0.4769    
    505      1     30     29     -0.4769    
    506      1     31     29      -5.563    
    507      1     32     29      -5.563    
    508      1     33     29      -1.113    
    509      1     40     29      -2.434    
    510      1     41     29      -2.434    
    511      1     42     29      -2.434    
    512      1     43     29      -2.434    
    513      1     44     29      -4.868    
    514      1     45     29      -2.434    
    515      1     46     29      -2.434    
    516      1     47     29      -2.434    
    517      1     48     29      -2.434    
    518      1     51     29     -0.4287    
    519      1     52     29     -0.4287    
    520      1     55     29     -0.4632    
    521      1     56     29     -0.4632    
    522      1     66     29      -7.307    
    523      1     67     29      -7.307    
    524      1     68     29      -14.61    
    525      1     77     29      -2.717    
    526      1     78     29      -2.717    
    527      1     79     29      -2.718    
    528      1     80     29      -2.718    
    529      1     81     29      -5.435    
    530      1     82     29      -2.718    
    531      1     83     29      -2.718    
    532      1     84     29      -1.359    
    533      1     85     29      -1.359    
    534      1     86     29      -1.359    
    535      1     87     29      -1.359    
    536      1     20     30      -10.09    
    537      1     21     30      -10.09    
    538      1     22     30      -7.416    
    539      1     29     30     -0.4769    
    540      1     30     30     -0.4769    
    541      1     31     30      -5.563    
    542      1     32     30      -5.563    
    543      1     33     30      -1.113    
    544      1     40     30      -2.434    
    545      1     41     30      -2.434    
    546      1     42     30      -2.434    
    547      1     43     30      -2.434    
    548      1     44     30      -4.868    
    549      1     45     30      -2.434    
    550      1     46     30      -2.434    
    551      1     47     30      -2.434    
    552      1     48     30      -2.434    
    553      1     53     30     -0.4317E-01
    554      1     54     30     -0.4317E-01
    555      1     66     30      -4.461    
    556      1     67     30      -4.461    
    557      1     68     30      -8.922    
    558      1     69     30      -4.461    
    559      1     70     30      -4.461    
    560      1     75     30      -4.462    
    561      1     76     30      -4.462    
    562      1     77     30      -3.631    
    563      1     78     30      -3.631    
    564      1     79     30      -3.631    
    565      1     80     30      -3.631    
    566      1     81     30      -7.262    
    567      1     82     30      -3.631    
    568      1     83     30      -3.631    
    569      1     86     30      -3.632    
    570      1     87     30      -3.632    
    571      1     20     31      -18.22    
    572      1     21     31      -18.22    
    573      1     27     31      -20.83    
    574      1     28     31      -20.83    
    575      1     31     31      -1.385    
    576      1     32     31      -1.385    
    577      1     33     31      -27.70    
    578      1     38     31      -13.85    
    579      1     39     31      -13.85    
    580      1     40     31      -5.530    
    581      1     41     31      -5.530    
    582      1     42     31      -5.531    
    583      1     43     31      -5.531    
    584      1     44     31      -11.06    
    585      1     45     31      -5.531    
    586      1     46     31      -5.531    
    587      1     47     31      -5.532    
    588      1     48     31      -5.532    
    589      1     49     31      -5.532    
    590      1     50     31      -5.532    
    591      1     53     31     -0.4317E-01
    592      1     54     31     -0.4317E-01
    593      1     66     31      -4.461    
    594      1     67     31      -4.461    
    595      1     68     31      -8.922    
    596      1     69     31      -4.461    
    597      1     70     31      -4.461    
    598      1     75     31      -4.462    
    599      1     76     31      -4.462    
    600      1     77     31      -3.631    
    601      1     78     31      -3.631    
    602      1     79     31      -3.631    
    603      1     80     31      -3.631    
    604      1     81     31      -7.262    
    605      1     82     31      -3.631    
    606      1     83     31      -3.631    
    607      1     86     31      -3.632    
    608      1     87     31      -3.632    
    609      1     22     32      -13.85    
    610      1     23     32      -6.923    
    611      1     24     32      -6.923    
    612      1     25     32      -6.923    
    613      1     26     32      -6.923    
    614      1     31     32     -0.6587    
    615      1     32     32     -0.6587    
    616      1     33     32      -13.85    
    617      1     36     32      -6.925    
    618      1     37     32      -6.925    
    619      1     38     32      -6.926    
    620      1     39     32      -6.926    
    621      1     40     32      -2.765    
    622      1     41     32      -2.765    
    623      1     42     32     -0.1369    
    624      1     43     32     -0.1369    
    625      1     44     32     -0.3507    
    626      1     45     32      -3.687    
    627      1     46     32      -3.687    
    628      1     47     32      -2.766    
    629      1     48     32      -2.766    
    630      1     49     32      -2.766    
    631      1     50     32      -2.766    
    632      1     55     32     -0.2631    
    633      1     56     32     -0.2631    
    634      1     57     32      -5.533    
    635      1     66     32      -4.461    
    636      1     67     32      -4.461    
    637      1     68     32      -8.922    
    638      1     75     32      -4.462    
    639      1     76     32      -4.462    
    640      1     77     32      -3.631    
    641      1     78     32      -3.631    
    642      1     81     32      -7.262    
    643      1     86     32      -3.632    
    644      1     87     32      -3.632    
    645      1     22     33      -13.85    
    646      1     23     33      -6.923    
    647      1     24     33      -6.923    
    648      1     25     33      -6.923    
    649      1     26     33      -6.923    
    650      1     31     33     -0.6587    
    651      1     32     33     -0.6587    
    652      1     33     33      -13.85    
    653      1     36     33      -6.925    
    654      1     37     33      -6.925    
    655      1     38     33      -6.926    
    656      1     39     33      -6.926    
    657      1     40     33      -2.765    
    658      1     41     33      -2.765    
    659      1     42     33     -0.1369    
    660      1     43     33     -0.1369    
    661      1     44     33     -0.3507    
    662      1     45     33     -0.3507    
    663      1     46     33      -3.687    
    664      1     47     33      -2.766    
    665      1     48     33      -2.766    
    666      1     49     33      -2.766    
    667      1     50     33      -2.766    
    668      1     55     33     -0.2631    
    669      1     56     33     -0.2631    
    670      1     57     33      -5.533    
    671      1     66     33      -4.461    
    672      1     67     33      -4.461    
    673      1     68     33      -8.922    
    674      1     75     33      -4.462    
    675      1     76     33      -4.462    
    676      1     77     33      -3.631    
    677      1     78     33      -3.631    
    678      1     81     33      -7.262    
    679      1     86     33      -3.632    
    680      1     87     33      -3.632    
    681      1     23     34      -6.923    
    682      1     24     34      -6.923    
    683      1     31     34     -0.6096    
    684      1     32     34     -0.6096    
    685      1     33     34      -13.85    
    686      1     36     34      -6.925    
    687      1     37     34      -6.925    
    688      1     38     34      -6.926    
    689      1     39     34      -6.926    
    690      1     40     34      -2.765    
    691      1     41     34      -2.765    
    692      1     42     34      -2.765    
    693      1     43     34      -2.765    
    694      1     44     34      -2.765    
    695      1     45     34      -2.765    
    696      1     49     34      -2.766    
    697      1     50     34      -2.766    
    698      1     57     34      -5.533    
    699      1     62     34      -4.460    
    700      1     63     34      -4.460    
    701      1     64     34      -4.460    
    702      1     65     34      -4.460    
    703      1     66     34      -4.461    
    704      1     67     34      -4.461    
    705      1     68     34     -0.5923    
    706      1     69     34     -0.2367    
    707      1     70     34     -0.2367    
    708      1     71     34     -0.6534E-01
    709      1     72     34     -0.6534E-01
    710      1     75     34      -4.462    
    711      1     76     34      -4.462    
    712      1     79     34      -3.631    
    713      1     80     34      -3.631    
    714      1     81     34      -7.262    
    715      1     82     34      -3.631    
    716      1     83     34      -3.631    
    717      1     84     34      -3.632    
    718      1     85     34      -3.632    
    719      1     23     35      -6.923    
    720      1     24     35      -6.923    
    721      1     31     35     -0.6096    
    722      1     32     35     -0.6096    
    723      1     33     35      -13.85    
    724      1     36     35      -6.925    
    725      1     37     35      -6.925    
    726      1     38     35      -6.926    
    727      1     39     35      -6.926    
    728      1     40     35      -2.765    
    729      1     41     35      -2.765    
    730      1     42     35      -2.765    
    731      1     43     35      -2.765    
    732      1     44     35      -2.765    
    733      1     45     35      -2.765    
    734      1     49     35      -2.766    
    735      1     50     35      -2.766    
    736      1     57     35      -5.533    
    737      1     62     35      -4.460    
    738      1     63     35      -4.460    
    739      1     64     35      -4.460    
    740      1     65     35      -4.460    
    741      1     66     35      -4.461    
    742      1     67     35      -4.461    
    743      1     68     35     -0.5923    
    744      1     69     35     -0.2367    
    745      1     70     35     -0.2367    
    746      1     71     35     -0.6534E-01
    747      1     72     35     -0.6534E-01
    748      1     75     35      -4.462    
    749      1     76     35      -4.462    
    750      1     79     35      -3.631    
    751      1     80     35      -3.631    
    752      1     81     35      -7.262    
    753      1     82     35      -3.631    
    754      1     83     35      -3.631    
    755      1     84     35      -3.632    
    756      1     85     35      -3.632    
    757      1     23     36      -6.923    
    758      1     24     36      -6.923    
    759      1     25     36      -6.923    
    760      1     26     36      -6.923    
    761      1     31     36     -0.5624    
    762      1     32     36     -0.5624    
    763      1     33     36      -13.85    
    764      1     36     36      -6.925    
    765      1     37     36      -6.925    
    766      1     38     36      -6.926    
    767      1     39     36      -6.926    
    768      1     40     36     -0.2765    
    769      1     41     36     -0.2765    
    770      1     42     36      -2.765    
    771      1     43     36      -2.765    
    772      1     44     36      -2.765    
    773      1     45     36      -2.765    
    774      1     46     36      -5.531    
    775      1     49     36      -2.766    
    776      1     50     36      -2.766    
    777      1     53     36     -0.2698    
    778      1     54     36     -0.2698    
    779      1     55     36      -2.766    
    780      1     56     36      -2.766    
    781      1     57     36      -5.533    
    782      1     58     36      -8.920    
    783      1     59     36      -8.920    
    784      1     60     36      -8.920    
    785      1     61     36      -8.920    
    786      1     62     36      -8.920    
    787      1     63     36      -8.920    
    788      1     64     36      -8.921    
    789      1     65     36      -8.921    
    790      1     66     36      -8.921    
    791      1     67     36      -8.921    
    792      1     68     36      -8.922    
    793      1     69     36      -8.922    
    794      1     75     36     -0.9915E-01
    795      1     76     36     -0.9915E-01
    796      1     79     36      -7.262    
    797      1     80     36      -7.262    
    798      1     81     36      -14.52    
    799      1     82     36      -7.263    
    800      1     83     36      -7.263    
    801      1     23     37      -6.923    
    802      1     24     37      -6.923    
    803      1     25     37      -6.923    
    804      1     26     37      -6.923    
    805      1     31     37     -0.5624    
    806      1     32     37     -0.5624    
    807      1     33     37      -13.85    
    808      1     36     37      -6.925    
    809      1     37     37      -6.925    
    810      1     38     37      -6.926    
    811      1     39     37      -6.926    
    812      1     40     37     -0.2765    
    813      1     41     37     -0.2765    
    814      1     42     37      -2.765    
    815      1     43     37      -2.765    
    816      1     44     37      -2.765    
    817      1     45     37      -2.765    
    818      1     46     37      -5.531    
    819      1     49     37      -2.766    
    820      1     50     37      -2.766    
    821      1     53     37     -0.2698    
    822      1     54     37     -0.2698    
    823      1     55     37      -2.766    
    824      1     56     37      -2.766    
    825      1     57     37      -5.533    
    826      1     58     37      -4.460    
    827      1     59     37      -4.460    
    828      1     60     37      -4.460    
    829      1     61     37      -4.460    
    830      1     62     37      -4.460    
    831      1     63     37      -4.460    
    832      1     68     37      -4.461    
    833      1     69     37      -4.461    
    834      1     70     37      -8.922    
    835      1     71     37      -4.461    
    836      1     72     37      -4.461    
    837      1     77     37      -3.631    
    838      1     78     37      -3.631    
    839      1     79     37      -3.631    
    840      1     80     37      -3.631    
    841      1     81     37      -7.262    
    842      1     82     37      -3.631    
    843      1     83     37      -3.631    
    844      1     23     38      -6.923    
    845      1     24     38      -6.923    
    846      1     25     38      -13.85    
    847      1     26     38      -13.85    
    848      1     27     38      -13.85    
    849      1     28     38      -13.85    
    850      1     31     38      -1.187    
    851      1     32     38      -1.187    
    852      1     33     38      -27.70    
    853      1     36     38      -13.85    
    854      1     37     38      -13.85    
    855      1     40     38      -5.530    
    856      1     41     38      -5.530    
    857      1     42     38      -5.531    
    858      1     43     38      -5.531    
    859      1     49     38     -0.4131E-02
    860      1     50     38     -0.4131E-02
    861      1     53     38      -5.532    
    862      1     54     38      -5.532    
    863      1     55     38      -5.533    
    864      1     56     38      -5.533    
    865      1     57     38      -11.07    
    866      1     58     38      -4.460    
    867      1     59     38      -4.460    
    868      1     60     38      -4.460    
    869      1     61     38      -4.460    
    870      1     62     38      -4.460    
    871      1     63     38      -4.460    
    872      1     68     38      -4.461    
    873      1     69     38      -4.461    
    874      1     70     38      -8.922    
    875      1     71     38      -4.461    
    876      1     72     38      -4.461    
    877      1     77     38      -3.631    
    878      1     78     38      -3.631    
    879      1     79     38      -3.631    
    880      1     80     38      -3.631    
    881      1     81     38      -7.262    
    882      1     82     38      -3.631    
    883      1     83     38      -3.631    
    884      1     23     39      -6.923    
    885      1     24     39      -6.923    
    886      1     25     39      -6.923    
    887      1     26     39      -6.923    
    888      1     27     39      -6.924    
    889      1     28     39      -6.924    
    890      1     33     39      -13.85    
    891      1     36     39     -0.6925    
    892      1     37     39     -0.6925    
    893      1     40     39      -2.765    
    894      1     41     39      -2.765    
    895      1     42     39      -2.765    
    896      1     43     39      -2.765    
    897      1     44     39      -2.765    
    898      1     45     39      -2.765    
    899      1     46     39      -5.531    
    900      1     47     39     -0.7124E-02
    901      1     48     39     -0.7124E-02
    902      1     51     39     -0.2766    
    903      1     52     39     -0.2766    
    904      1     53     39      -2.766    
    905      1     54     39      -2.766    
    906      1     57     39      -5.533    
    907      1     58     39      -4.460    
    908      1     59     39      -4.460    
    909      1     60     39      -4.460    
    910      1     61     39      -4.460    
    911      1     64     39      -4.460    
    912      1     65     39      -4.460    
    913      1     70     39      -8.922    
    914      1     71     39      -4.461    
    915      1     72     39      -4.461    
    916      1     81     39      -7.262    
    917      1     82     39      -3.631    
    918      1     83     39      -3.631    
    919      1     23     40      -13.85    
    920      1     24     40      -13.85    
    921      1     25     40      -6.923    
    922      1     26     40      -6.923    
    923      1     27     40      -6.924    
    924      1     28     40      -6.924    
    925      1     33     40      -13.85    
    926      1     36     40     -0.6925    
    927      1     37     40     -0.6925    
    928      1     40     40      -2.765    
    929      1     41     40      -2.765    
    930      1     42     40      -2.765    
    931      1     43     40      -2.765    
    932      1     44     40      -2.765    
    933      1     45     40      -2.765    
    934      1     46     40      -5.531    
    935      1     47     40     -0.7124E-02
    936      1     48     40     -0.7124E-02
    937      1     51     40     -0.2766    
    938      1     52     40     -0.2766    
    939      1     53     40      -2.766    
    940      1     54     40      -2.766    
    941      1     57     40      -5.533    
    942      1     58     40      -4.460    
    943      1     59     40      -4.460    
    944      1     60     40      -4.460    
    945      1     61     40      -4.460    
    946      1     64     40      -4.460    
    947      1     65     40      -4.460    
    948      1     70     40      -8.922    
    949      1     71     40      -4.461    
    950      1     72     40      -4.461    
    951      1     81     40      -7.262    
    952      1     82     40      -3.631    
    953      1     83     40      -3.631    
    954      1     23     41      -6.923    
    955      1     24     41      -6.923    
    956      1     33     41     -0.7916    
    957      1     36     41      -6.925    
    958      1     37     41      -6.925    
    959      1     38     41      -6.926    
    960      1     39     41      -6.926    
    961      1     40     41      -2.765    
    962      1     41     41      -2.765    
    963      1     42     41      -2.765    
    964      1     43     41      -2.765    
    965      1     44     41      -2.765    
    966      1     45     41      -2.765    
    967      1     46     41      -5.531    
    968      1     49     41     -0.2766    
    969      1     50     41     -0.2766    
    970      1     51     41      -2.766    
    971      1     52     41      -2.766    
    972      1     55     41      -2.766    
    973      1     56     41      -2.766    
    974      1     57     41      -5.533    
    975      1     58     41      -4.460    
    976      1     59     41      -4.460    
    977      1     60     41      -4.460    
    978      1     61     41      -4.460    
    979      1     62     41      -4.460    
    980      1     63     41      -4.460    
    981      1     70     41      -8.922    
    982      1     71     41     -0.8812E-01
    983      1     72     41     -0.8812E-01
    984      1     75     41     -0.3144    
    985      1     76     41     -0.3144    
    986      1     77     41      -3.631    
    987      1     78     41      -3.631    
    988      1     79     41      -3.631    
    989      1     80     41      -3.631    
    990      1     81     41      -7.262    
    991      1     82     41      -3.631    
    992      1     83     41      -3.631    
    993      1     23     42      -6.923    
    994      1     24     42      -6.923    
    995      1     33     42     -0.7916    
    996      1     34     42     -0.7916    
    997      1     36     42      -6.925    
    998      1     37     42      -6.925    
    999      1     38     42      -6.926    
   1000      1     39     42      -6.926    
   1001      1     40     42      -2.765    
   1002      1     41     42      -2.765    
   1003      1     42     42      -2.765    
   1004      1     43     42      -2.765    
   1005      1     44     42      -2.765    
   1006      1     45     42      -2.765    
   1007      1     46     42      -5.531    
   1008      1     49     42     -0.2766    
   1009      1     50     42     -0.2766    
   1010      1     51     42      -2.766    
   1011      1     52     42      -2.766    
   1012      1     55     42      -2.766    
   1013      1     56     42      -2.766    
   1014      1     57     42      -5.533    
   1015      1     58     42      -4.460    
   1016      1     59     42      -4.460    
   1017      1     60     42      -4.460    
   1018      1     61     42      -4.460    
   1019      1     62     42      -4.460    
   1020      1     63     42      -4.460    
   1021      1     70     42      -8.922    
   1022      1     71     42     -0.8812E-01
   1023      1     72     42     -0.8812E-01
   1024      1     75     42     -0.3144    
   1025      1     76     42     -0.3144    
   1026      1     77     42      -3.631    
   1027      1     78     42      -3.631    
   1028      1     79     42      -3.631    
   1029      1     80     42      -3.631    
   1030      1     81     42      -7.262    
   1031      1     82     42      -3.631    
   1032      1     83     42      -3.631    
   1033      1     22     43      -13.85    
   1034      1     23     43      -6.923    
   1035      1     24     43      -6.923    
   1036      1     25     43      -6.923    
   1037      1     26     43      -6.923    
   1038      1     29     43      -11.97    
   1039      1     30     43      -11.97    
   1040      1     31     43      -6.924    
   1041      1     32     43      -6.924    
   1042      1     36     43      -6.925    
   1043      1     37     43      -6.925    
   1044      1     38     43      -6.926    
   1045      1     39     43      -6.926    
   1046      1     40     43      -2.765    
   1047      1     41     43      -2.765    
   1048      1     42     43      -2.765    
   1049      1     43     43      -2.765    
   1050      1     44     43      -2.765    
   1051      1     45     43      -2.765    
   1052      1     46     43     -0.4460E-01
   1053      1     49     43      -2.766    
   1054      1     50     43      -2.766    
   1055      1     55     43      -2.766    
   1056      1     56     43      -2.766    
   1057      1     57     43      -5.533    
   1058      1     58     43      -4.460    
   1059      1     59     43      -4.460    
   1060      1     60     43      -4.460    
   1061      1     61     43      -4.460    
   1062      1     62     43      -4.460    
   1063      1     63     43      -4.460    
   1064      1     64     43      -4.460    
   1065      1     65     43      -4.460    
   1066      1     66     43      -8.921    
   1067      1     67     43      -8.921    
   1068      1     68     43      -8.922    
   1069      1     69     43      -8.922    
   1070      1     70     43      -1.784    
   1071      1     77     43      -7.262    
   1072      1     78     43      -7.262    
   1073      1     81     43      -14.52    
   1074      1     82     43      -7.263    
   1075      1     83     43      -7.263    
   1076      1     84     43      -7.263    
   1077      1     85     43      -7.263    
   1078      1     22     44      -13.85    
   1079      1     23     44      -6.923    
   1080      1     24     44      -6.923    
   1081      1     25     44      -6.923    
   1082      1     26     44      -6.923    
   1083      1     29     44      -11.97    
   1084      1     30     44      -11.97    
   1085      1     31     44      -6.924    
   1086      1     32     44      -6.924    
   1087      1     36     44      -6.925    
   1088      1     37     44      -6.925    
   1089      1     38     44      -6.926    
   1090      1     39     44      -6.926    
   1091      1     40     44      -2.765    
   1092      1     41     44      -2.765    
   1093      1     42     44      -2.765    
   1094      1     43     44      -2.765    
   1095      1     44     44      -2.765    
   1096      1     45     44      -2.765    
   1097      1     46     44     -0.4460E-01
   1098      1     49     44      -2.766    
   1099      1     50     44      -2.766    
   1100      1     55     44      -2.766    
   1101      1     56     44      -2.766    
   1102      1     57     44      -5.533    
   1103      1     58     44      -4.460    
   1104      1     59     44      -4.460    
   1105      1     60     44      -4.460    
   1106      1     61     44      -4.460    
   1107      1     62     44      -4.460    
   1108      1     63     44      -4.460    
   1109      1     64     44      -4.460    
   1110      1     65     44      -4.460    
   1111      1     75     44      -4.462    
   1112      1     76     44      -4.462    
   1113      1     79     44      -3.631    
   1114      1     80     44      -3.631    
   1115      1     81     44      -7.262    
   1116      1     82     44      -3.631    
   1117      1     83     44      -3.631    
   1118      1     84     44      -3.632    
   1119      1     85     44      -3.632    
   1120      1     86     44      -3.632    
   1121      1     87     44      -3.632    
   1122      1     22     45      -13.85    
   1123      1     23     45      -6.923    
   1124      1     24     45      -6.923    
   1125      1     25     45      -6.923    
   1126      1     26     45      -6.923    
   1127      1     27     45      -6.924    
   1128      1     28     45      -6.924    
   1129      1     29     45      -6.924    
   1130      1     30     45      -6.924    
   1131      1     31     45      -13.85    
   1132      1     32     45      -13.85    
   1133      1     35     45      -2.312    
   1134      1     36     45      -13.85    
   1135      1     37     45      -13.85    
   1136      1     38     45      -13.85    
   1137      1     39     45      -13.85    
   1138      1     40     45      -5.530    
   1139      1     41     45      -5.530    
   1140      1     42     45      -5.531    
   1141      1     43     45      -5.531    
   1142      1     44     45      -5.531    
   1143      1     45     45      -5.531    
   1144      1     53     45      -5.532    
   1145      1     54     45      -5.532    
   1146      1     57     45      -5.533    
   1147      1     58     45      -5.533    
   1148      1     59     45      -17.84    
   1149      1     60     45      -8.920    
   1150      1     61     45      -8.920    
   1151      1     62     45      -8.920    
   1152      1     63     45      -8.920    
   1153      1     64     45      -8.921    
   1154      1     65     45      -8.921    
   1155      1     75     45      -4.462    
   1156      1     76     45      -4.462    
   1157      1     79     45      -3.631    
   1158      1     80     45      -3.631    
   1159      1     81     45      -7.262    
   1160      1     82     45      -3.631    
   1161      1     83     45      -3.631    
   1162      1     84     45      -3.632    
   1163      1     85     45      -3.632    
   1164      1     86     45      -3.632    
   1165      1     87     45      -3.632    
   1166      1     22     46      -13.85    
   1167      1     23     46      -6.923    
   1168      1     24     46      -6.923    
   1169      1     25     46      -6.923    
   1170      1     26     46      -6.923    
   1171      1     27     46      -6.924    
   1172      1     28     46      -6.924    
   1173      1     29     46      -6.924    
   1174      1     30     46      -6.924    
   1175      1     31     46     -0.6924    
   1176      1     32     46     -0.6924    
   1177      1     36     46      -6.925    
   1178      1     37     46      -6.925    
   1179      1     38     46      -6.926    
   1180      1     39     46      -6.926    
   1181      1     40     46      -2.765    
   1182      1     41     46      -2.765    
   1183      1     42     46      -2.765    
   1184      1     43     46      -2.765    
   1185      1     51     46      -2.766    
   1186      1     52     46      -2.766    
   1187      1     53     46      -2.766    
   1188      1     54     46      -2.766    
   1189      1     55     46      -2.766    
   1190      1     56     46      -2.766    
   1191      1     57     46      -2.766    
   1192      1     58     46      -2.766    
   1193      1     59     46      -8.920    
   1194      1     60     46      -4.460    
   1195      1     61     46      -4.460    
   1196      1     64     46      -4.460    
   1197      1     65     46      -4.460    
   1198      1     66     46      -4.461    
   1199      1     67     46      -4.461    
   1200      1     68     46      -10.35    
   1201      1     69     46      -10.35    
   1202      1     73     46      -4.461    
   1203      1     74     46      -4.461    
   1204      1     75     46      -4.462    
   1205      1     76     46      -4.462    
   1206      1     77     46      -3.631    
   1207      1     78     46      -3.631    
   1208      1     79     46      -3.631    
   1209      1     80     46      -3.631    
   1210      1     81     46      -7.262    
   1211      1     82     46      -3.631    
   1212      1     83     46      -3.631    
   1213      1     84     46      -3.632    
   1214      1     85     46      -3.632    
   1215      1     88     46      -3.632    
   1216      1     89     46      -3.632    
   1217      1     20     47      -18.22    
   1218      1     21     47      -18.22    
   1219      1     22     47      -27.69    
   1220      1     23     47      -13.85    
   1221      1     24     47      -13.85    
   1222      1     25     47      -13.85    
   1223      1     26     47      -13.85    
   1224      1     27     47      -13.85    
   1225      1     28     47      -13.85    
   1226      1     29     47      -13.85    
   1227      1     30     47      -13.85    
   1228      1     31     47     -0.6924    
   1229      1     32     47     -0.6924    
   1230      1     36     47      -6.925    
   1231      1     37     47      -6.925    
   1232      1     38     47      -6.926    
   1233      1     39     47      -6.926    
   1234      1     40     47      -2.765    
   1235      1     41     47      -2.765    
   1236      1     42     47      -2.765    
   1237      1     43     47      -2.765    
   1238      1     51     47      -2.766    
   1239      1     52     47      -2.766    
   1240      1     53     47      -2.766    
   1241      1     54     47      -2.766    
   1242      1     55     47      -2.766    
   1243      1     56     47      -2.766    
   1244      1     57     47      -2.766    
   1245      1     58     47      -2.766    
   1246      1     59     47      -8.920    
   1247      1     60     47      -4.460    
   1248      1     61     47      -4.460    
   1249      1     64     47      -4.460    
   1250      1     65     47      -4.460    
   1251      1     66     47      -4.461    
   1252      1     67     47      -4.461    
   1253      1     68     47      -10.35    
   1254      1     69     47      -10.35    
   1255      1     73     47      -4.461    
   1256      1     74     47      -4.461    
   1257      1     75     47      -4.462    
   1258      1     76     47      -4.462    
   1259      1     77     47      -3.631    
   1260      1     78     47      -3.631    
   1261      1     79     47      -3.631    
   1262      1     80     47      -3.631    
   1263      1     81     47      -7.262    
   1264      1     82     47      -3.631    
   1265      1     83     47      -3.631    
   1266      1     84     47      -3.632    
   1267      1     85     47      -3.632    
   1268      1     88     47      -3.632    
   1269      1     89     47      -3.632    
   1270      1     16     48      -11.19    
   1271      1     17     48      -11.19    
   1272      1     22     48      -16.70    
   1273      1     23     48      -8.352    
   1274      1     24     48      -8.352    
   1275      1     25     48      -8.352    
   1276      1     26     48      -8.352    
   1277      1     29     48     -0.8353    
   1278      1     30     48     -0.8353    
   1279      1     31     48     -0.8353    
   1280      1     32     48     -0.8353    
   1281      1     33     48     -0.8354    
   1282      1     34     48     -0.8354    
   1283      1     35     48      -1.671    
   1284      1     40     48      -6.307    
   1285      1     41     48      -6.307    
   1286      1     46     48     -0.5200    
   1287      1     47     48      -6.309    
   1288      1     48     48      -6.309    
   1289      1     49     48      -6.309    
   1290      1     50     48      -6.309    
   1291      1     51     48      -6.309    
   1292      1     52     48      -6.309    
   1293      1     53     48      -6.309    
   1294      1     54     48      -6.309    
   1295      1     55     48      -6.310    
   1296      1     56     48      -6.310    
   1297      1     57     48      -6.310    
   1298      1     58     48      -6.310    
   1299      1     59     48      -19.70    
   1300      1     60     48      -9.849    
   1301      1     61     48      -9.849    
   1302      1     64     48      -9.850    
   1303      1     65     48      -9.850    
   1304      1     66     48      -9.850    
   1305      1     67     48      -9.850    
   1306      1     68     48      -10.90    
   1307      1     69     48      -10.90    
   1308      1     73     48      -9.852    
   1309      1     74     48      -9.852    
   1310      1     79     48      -7.550    
   1311      1     80     48      -7.550    
   1312      1     81     48      -10.07    
   1313      1     82     48      -10.07    
   1314      1     83     48      -10.07    
   1315      1     84     48      -7.551    
   1316      1     85     48      -7.551    
   1317      1     88     48      -7.552    
   1318      1     89     48      -7.552    
   1319      1     16     49      -11.19    
   1320      1     17     49      -11.19    
   1321      1     22     49      -16.70    
   1322      1     23     49      -8.352    
   1323      1     24     49      -8.352    
   1324      1     25     49      -8.352    
   1325      1     26     49      -8.352    
   1326      1     29     49     -0.8353    
   1327      1     30     49     -0.8353    
   1328      1     31     49     -0.8353    
   1329      1     32     49     -0.8353    
   1330      1     33     49     -0.8354    
   1331      1     34     49     -0.8354    
   1332      1     35     49      -1.671    
   1333      1     40     49      -6.307    
   1334      1     41     49      -6.307    
   1335      1     46     49     -0.5200    
   1336      1     47     49      -6.309    
   1337      1     48     49      -6.309    
   1338      1     49     49      -6.309    
   1339      1     50     49      -6.309    
   1340      1     51     49      -6.309    
   1341      1     52     49      -6.309    
   1342      1     53     49      -6.309    
   1343      1     54     49      -6.309    
   1344      1     55     49      -6.310    
   1345      1     56     49      -6.310    
   1346      1     57     49      -6.310    
   1347      1     58     49      -6.310    
   1348      1     59     49      -19.70    
   1349      1     60     49      -9.849    
   1350      1     61     49      -9.849    
   1351      1     64     49      -9.850    
   1352      1     65     49      -9.850    
   1353      1     66     49      -9.850    
   1354      1     67     49      -9.850    
   1355      1     68     49      -10.90    
   1356      1     69     49      -10.90    
   1357      1     73     49      -9.852    
   1358      1     74     49      -9.852    
   1359      1     79     49      -7.550    
   1360      1     80     49      -7.550    
   1361      1     81     49      -10.07    
   1362      1     82     49      -10.07    
   1363      1     83     49      -10.07    
   1364      1     84     49      -7.551    
   1365      1     85     49      -7.551    
   1366      1     88     49      -7.552    
   1367      1     89     49      -7.552    
   1368      1     16     50      -11.19    
   1369      1     17     50      -11.19    
   1370      1     20     50      -11.19    
   1371      1     21     50      -11.19    
   1372      1     22     50      -16.70    
   1373      1     23     50      -8.352    
   1374      1     24     50      -8.352    
   1375      1     25     50      -8.352    
   1376      1     26     50      -8.352    
   1377      1     29     50      -8.353    
   1378      1     30     50      -8.353    
   1379      1     31     50      -8.353    
   1380      1     32     50      -8.353    
   1381      1     33     50      -8.354    
   1382      1     34     50      -8.354    
   1383      1     35     50      -16.71    
   1384      1     38     50     -0.8355    
   1385      1     39     50     -0.8355    
   1386      1     40     50      -6.307    
   1387      1     41     50      -6.307    
   1388      1     42     50     -0.6308    
   1389      1     43     50     -0.6308    
   1390      1     46     50     -0.1558E-01
   1391      1     47     50      -6.309    
   1392      1     48     50      -6.309    
   1393      1     49     50      -6.309    
   1394      1     50     50      -6.309    
   1395      1     51     50      -6.309    
   1396      1     52     50      -6.309    
   1397      1     53     50      -13.04    
   1398      1     54     50      -13.04    
   1399      1     55     50      -6.310    
   1400      1     56     50      -6.310    
   1401      1     57     50      -6.310    
   1402      1     58     50      -6.310    
   1403      1     59     50      -19.70    
   1404      1     64     50      -9.850    
   1405      1     65     50      -9.850    
   1406      1     66     50      -9.850    
   1407      1     67     50      -9.850    
   1408      1     68     50      -9.851    
   1409      1     69     50      -9.851    
   1410      1     70     50      -19.70    
   1411      1     79     50      -15.10    
   1412      1     80     50      -15.10    
   1413      1     81     50      -15.10    
   1414      1     82     50      -15.10    
   1415      1     83     50      -30.20    
   1416      1     84     50      -15.10    
   1417      1     85     50      -15.10    
   1418      1     86     50      -15.10    
   1419      1     87     50      -15.10    
   1420      1     88     50      -15.10    
   1421      1     89     50      -15.10    
   1422      1     16     51      -11.19    
   1423      1     17     51      -11.19    
   1424      1     20     51      -11.19    
   1425      1     21     51      -11.19    
   1426      1     22     51      -16.70    
   1427      1     23     51      -8.352    
   1428      1     24     51      -8.352    
   1429      1     25     51      -8.352    
   1430      1     26     51      -8.352    
   1431      1     29     51      -8.353    
   1432      1     30     51      -8.353    
   1433      1     31     51      -8.353    
   1434      1     32     51      -8.353    
   1435      1     33     51      -8.354    
   1436      1     34     51      -8.354    
   1437      1     35     51      -16.71    
   1438      1     38     51     -0.8355    
   1439      1     39     51     -0.8355    
   1440      1     40     51      -6.307    
   1441      1     41     51      -6.307    
   1442      1     42     51     -0.6308    
   1443      1     43     51     -0.6308    
   1444      1     46     51     -0.1558E-01
   1445      1     47     51      -6.309    
   1446      1     48     51      -6.309    
   1447      1     49     51      -6.309    
   1448      1     50     51      -6.309    
   1449      1     51     51      -6.309    
   1450      1     52     51      -6.309    
   1451      1     53     51      -13.04    
   1452      1     54     51      -13.04    
   1453      1     55     51      -6.310    
   1454      1     56     51      -6.310    
   1455      1     57     51      -6.310    
   1456      1     58     51      -6.310    
   1457      1     59     51      -19.70    
   1458      1     64     51      -9.850    
   1459      1     65     51      -9.850    
   1460      1     66     51      -9.850    
   1461      1     67     51      -9.850    
   1462      1     68     51      -9.851    
   1463      1     69     51      -9.851    
   1464      1     70     51      -19.70    
   1465      1     74     51      -13.14    
   1466      1     75     51      -9.852    
   1467      1     76     51      -9.852    
   1468      1     77     51      -7.550    
   1469      1     78     51      -7.550    
   1470      1     79     51      -7.550    
   1471      1     80     51      -7.550    
   1472      1     81     51      -7.550    
   1473      1     82     51      -7.550    
   1474      1     83     51      -15.10    
   1475      1     86     51     -0.7551    
   1476      1     87     51     -0.7551    
   1477      1     88     51      -7.552    
   1478      1     89     51      -7.552    
   1479      1     16     52      -11.19    
   1480      1     17     52      -11.19    
   1481      1     20     52      -11.19    
   1482      1     21     52      -11.19    
   1483      1     22     52      -8.351    
   1484      1     23     52      -8.351    
   1485      1     24     52      -16.70    
   1486      1     31     52      -8.353    
   1487      1     32     52      -8.353    
   1488      1     33     52      -8.354    
   1489      1     34     52      -8.354    
   1490      1     35     52      -16.71    
   1491      1     38     52      -1.087    
   1492      1     39     52      -1.087    
   1493      1     40     52      -12.61    
   1494      1     41     52      -12.61    
   1495      1     42     52      -12.62    
   1496      1     43     52      -12.62    
   1497      1     49     52      -1.262    
   1498      1     50     52      -1.262    
   1499      1     51     52      -12.62    
   1500      1     52     52      -12.62    
   1501      1     55     52      -12.62    
   1502      1     56     52      -12.62    
   1503      1     57     52      -12.62    
   1504      1     58     52      -12.62    
   1505      1     59     52      -39.39    
   1506      1     64     52      -19.70    
   1507      1     65     52      -19.70    
   1508      1     66     52      -19.70    
   1509      1     67     52      -19.70    
   1510      1     68     52      -19.70    
   1511      1     69     52      -19.70    
   1512      1     70     52      -39.40    
   1513      1     73     52      -13.14    
   1514      1     74     52      -13.14    
   1515      1     75     52      -9.852    
   1516      1     76     52      -9.852    
   1517      1     77     52      -7.550    
   1518      1     78     52      -7.550    
   1519      1     79     52      -7.550    
   1520      1     80     52      -7.550    
   1521      1     81     52      -7.550    
   1522      1     82     52      -7.550    
   1523      1     83     52      -15.10    
   1524      1     86     52     -0.7551    
   1525      1     87     52     -0.7551    
   1526      1     88     52      -7.552    
   1527      1     89     52      -7.552    
   1528      1     16     53      -11.19    
   1529      1     17     53      -11.19    
   1530      1     20     53      -11.19    
   1531      1     21     53      -11.19    
   1532      1     22     53      -8.351    
   1533      1     23     53      -8.351    
   1534      1     24     53      -16.70    
   1535      1     31     53      -8.353    
   1536      1     32     53      -8.353    
   1537      1     33     53      -8.354    
   1538      1     34     53      -8.354    
   1539      1     35     53      -16.71    
   1540      1     38     53      -1.087    
   1541      1     39     53      -1.114    
   1542      1     40     53      -6.307    
   1543      1     41     53      -6.307    
   1544      1     42     53      -6.308    
   1545      1     43     53      -6.308    
   1546      1     44     53      -6.308    
   1547      1     45     53      -6.308    
   1548      1     46     53     -0.1969    
   1549      1     49     53     -0.2701    
   1550      1     50     53     -0.2701    
   1551      1     55     53      -6.310    
   1552      1     56     53      -6.310    
   1553      1     57     53      -6.310    
   1554      1     58     53      -6.310    
   1555      1     59     53      -19.70    
   1556      1     64     53      -9.850    
   1557      1     65     53      -9.850    
   1558      1     66     53      -9.850    
   1559      1     67     53      -9.850    
   1560      1     68     53      -9.851    
   1561      1     69     53      -9.851    
   1562      1     73     53      -9.852    
   1563      1     74     53      -9.852    
   1564      1     75     53     -0.9852    
   1565      1     76     53     -0.9852    
   1566      1     77     53      -7.550    
   1567      1     78     53      -7.550    
   1568      1     79     53      -7.550    
   1569      1     80     53      -7.550    
   1570      1     81     53      -7.550    
   1571      1     82     53      -7.550    
   1572      1     83     53      -15.10    
   1573      1     86     53      -7.551    
   1574      1     87     53      -7.551    
   1575      1     88     53      -7.552    
   1576      1     89     53      -7.552    
   1577      1     16     54      -22.38    
   1578      1     17     54      -22.38    
   1579      1     20     54      -22.38    
   1580      1     21     54      -22.38    
   1581      1     22     54      -16.70    
   1582      1     23     54      -16.70    
   1583      1     24     54      -33.41    
   1584      1     27     54      -16.70    
   1585      1     28     54      -16.70    
   1586      1     29     54      -16.71    
   1587      1     30     54      -16.71    
   1588      1     33     54      -16.71    
   1589      1     34     54      -16.71    
   1590      1     38     54      -1.114    
   1591      1     39     54      -1.114    
   1592      1     40     54      -6.307    
   1593      1     41     54      -6.307    
   1594      1     42     54      -6.308    
   1595      1     43     54      -6.308    
   1596      1     44     54      -6.308    
   1597      1     45     54      -6.308    
   1598      1     46     54     -0.1969    
   1599      1     49     54     -0.2701    
   1600      1     50     54     -0.2701    
   1601      1     55     54      -6.310    
   1602      1     56     54      -6.310    
   1603      1     57     54      -6.310    
   1604      1     58     54      -6.310    
   1605      1     59     54      -19.70    
   1606      1     64     54      -9.850    
   1607      1     65     54      -9.850    
   1608      1     66     54      -9.850    
   1609      1     67     54      -9.850    
   1610      1     68     54      -9.851    
   1611      1     69     54      -9.851    
   1612      1     73     54      -9.852    
   1613      1     74     54      -9.852    
   1614      1     75     54     -0.9852    
   1615      1     76     54     -0.9852    
[...]
  11994      1    108    258       1866.    
  11995      1    108    259       1866.    
  11996      1    108    260       1866.    
  11997      1    108    261       1866.    
  11998      1    109    241       1866.    
  11999      1    109    242       1866.    
  12000      1    109    243       1866.    
  12001      1    109    245       1866.    
  12002      1    109    247       1866.    
  12003      1    109    250       1866.    
  12004      1    109    252       1866.    
  12005      1    109    255       1866.    
  12006      1    109    258       1866.    
  12007      1    109    259       1866.    
  12008      1    109    260       1866.    
  12009      1    109    294       1866.    
  12010      1    109    339       1866.    
  12011      1    110    244       1866.    
  12012      1    110    245       1866.    
  12013      1    110    246       1866.    
  12014      1    110    249       1866.    
  12015      1    110    252       1866.    
  12016      1    110    255       1866.    
  12017      1    110    257       1866.    
  12018      1    110    295       1866.    
  12019      1    110    332       1866.    
  12020      1    110    333       1866.    
  12021      1    110    338       1866.    
  12022      1    111    246       1866.    
  12023      1    111    249       1866.    
  12024      1    111    252       1866.    
  12025      1    111    254       1866.    
  12026      1    111    256       1866.    
  12027      1    111    271       1866.    
  12028      1    111    285       1866.    
  12029      1    111    286       1866.    
  12030      1    111    295       1866.    
  12031      1    111    332       1866.    
  12032      1    111    338       1866.    
  12033      1    112    247       1866.    
  12034      1    112    249       1866.    
  12035      1    112    251       1866.    
  12036      1    112    252       1866.    
  12037      1    112    253       1866.    
  12038      1    112    254       1866.    
  12039      1    112    255       1866.    
  12040      1    112    271       1866.    
  12041      1    112    284       1866.    
  12042      1    112    285       1866.    
  12043      1    112    295       1866.    
  12044      1    112    333       1866.    
  12045      1    113    248       1866.    
  12046      1    113    249       1866.    
  12047      1    113    250       1866.    
  12048      1    113    255       1866.    
  12049      1    113    270       1866.    
  12050      1    113    277       1866.    
  12051      1    113    278       1866.    
  12052      1    113    283       1866.    
  12053      1    113    295       1866.    
  12054      1    113    298       1866.    
  12055      1    113    299       1866.    
  12056      1    113    322       1866.    
  12057      1    113    332       1866.    
  12058      1    114    254       1866.    
  12059      1    114    262       1866.    
  12060      1    114    263       1866.    
  12061      1    114    269       1866.    
  12062      1    114    270       1866.    
  12063      1    114    276       1866.    
  12064      1    114    283       1866.    
  12065      1    114    291       1866.    
  12066      1    114    296       1866.    
  12067      1    114    297       1866.    
  12068      1    114    298       1866.    
  12069      1    114    323       1866.    
  12070      1    114    333       1866.    
  12071      1    115    254       1866.    
  12072      1    115    261       1866.    
  12073      1    115    270       1866.    
  12074      1    115    275       1866.    
  12075      1    115    276       1866.    
  12076      1    115    283       1866.    
  12077      1    115    291       1866.    
  12078      1    115    297       1866.    
  12079      1    115    298       1866.    
  12080      1    115    304       1866.    
  12081      1    115    306       1866.    
  12082      1    115    323       1866.    
  12083      1    115    324       1866.    
  12084      1    115    333       1866.    
  12085      1    116    254       1866.    
  12086      1    116    255       1866.    
  12087      1    116    260       1866.    
  12088      1    116    261       1866.    
  12089      1    116    270       1866.    
  12090      1    116    271       1866.    
  12091      1    116    272       1866.    
  12092      1    116    273       1866.    
  12093      1    116    274       1866.    
  12094      1    116    283       1866.    
  12095      1    116    291       1866.    
  12096      1    116    298       1866.    
  12097      1    116    299       1866.    
  12098      1    116    304       1866.    
  12099      1    116    306       1866.    
  12100      1    116    325       1866.    
  12101      1    116    326       1866.    
  12102      1    117    255       1866.    
  12103      1    117    256       1866.    
  12104      1    117    257       1866.    
  12105      1    117    258       1866.    
  12106      1    117    259       1866.    
  12107      1    117    267       1866.    
  12108      1    117    268       1866.    
  12109      1    117    269       1866.    
  12110      1    117    282       1866.    
  12111      1    117    291       1866.    
  12112      1    117    299       1866.    
  12113      1    117    305       1866.    
  12114      1    117    306       1866.    
  12115      1    117    312       1866.    
  12116      1    117    313       1866.    
  12117      1    117    327       1866.    
  12118      1    118    256       1866.    
  12119      1    118    258       1866.    
  12120      1    118    267       1866.    
  12121      1    118    281       1866.    
  12122      1    118    282       1866.    
  12123      1    118    291       1866.    
  12124      1    118    298       1866.    
  12125      1    118    305       1866.    
  12126      1    118    312       1866.    
  12127      1    118    323       1866.    
  12128      1    118    327       1866.    
  12129      1    119    256       1866.    
  12130      1    119    257       1866.    
  12131      1    119    267       1866.    
  12132      1    119    281       1866.    
  12133      1    119    291       1866.    
  12134      1    119    298       1866.    
  12135      1    119    305       1866.    
  12136      1    119    312       1866.    
  12137      1    119    324       1866.    
  12138      1    119    327       1866.    
  12139      1    120    257       1866.    
  12140      1    120    260       1866.    
  12141      1    120    261       1866.    
  12142      1    120    262       1866.    
  12143      1    120    266       1866.    
  12144      1    120    267       1866.    
  12145      1    120    280       1866.    
  12146      1    120    291       1866.    
  12147      1    120    298       1866.    
  12148      1    120    300       1866.    
  12149      1    120    306       1866.    
  12150      1    120    312       1866.    
  12151      1    120    325       1866.    
  12152      1    120    326       1866.    
  12153      1    120    327       1866.    
  12154      1    121    257       1866.    
  12155      1    121    258       1866.    
  12156      1    121    259       1866.    
  12157      1    121    263       1866.    
  12158      1    121    264       1866.    
  12159      1    121    266       1866.    
  12160      1    121    270       1866.    
  12161      1    121    280       1866.    
  12162      1    121    291       1866.    
  12163      1    121    298       1866.    
  12164      1    121    299       1866.    
  12165      1    121    300       1866.    
  12166      1    121    305       1866.    
  12167      1    121    311       1866.    
  12168      1    121    312       1866.    
  12169      1    121    326       1866.    
  12170      1    121    327       1866.    
  12171      1    122    263       1866.    
  12172      1    122    265       1866.    
  12173      1    122    271       1866.    
  12174      1    122    272       1866.    
  12175      1    122    278       1866.    
  12176      1    122    279       1866.    
  12177      1    122    291       1866.    
  12178      1    122    298       1866.    
  12179      1    122    305       1866.    
  12180      1    122    311       1866.    
  12181      1    123    263       1866.    
  12182      1    123    273       1866.    
  12183      1    123    278       1866.    
  12184      1    123    291       1866.    
  12185      1    123    295       1866.    
  12186      1    123    299       1866.    
  12187      1    123    305       1866.    
  12188      1    123    310       1866.    
  12189      1    123    326       1866.    
  12190      1    124    264       1866.    
  12191      1    124    272       1866.    
  12192      1    124    274       1866.    
  12193      1    124    278       1866.    
  12194      1    124    291       1866.    
  12195      1    124    295       1866.    
  12196      1    124    300       1866.    
  12197      1    124    304       1866.    
  12198      1    124    310       1866.    
  12199      1    124    326       1866.    
  12200      1    125    265       1866.    
  12201      1    125    267       1866.    
  12202      1    125    268       1866.    
  12203      1    125    271       1866.    
  12204      1    125    274       1866.    
  12205      1    125    277       1866.    
  12206      1    125    291       1866.    
  12207      1    125    295       1866.    
  12208      1    125    300       1866.    
  12209      1    125    301       1866.    
  12210      1    125    302       1866.    
  12211      1    125    303       1866.    
  12212      1    125    304       1866.    
  12213      1    125    310       1866.    
  12214      1    125    325       1866.    
  12215      1    126    266       1866.    
  12216      1    126    267       1866.    
  12217      1    126    271       1866.    
  12218      1    126    274       1866.    
  12219      1    126    277       1866.    
  12220      1    126    291       1866.    
  12221      1    126    295       1866.    
  12222      1    126    300       1866.    
  12223      1    126    310       1866.    
  12224      1    126    312       1866.    
  12225      1    127    267       1866.    
  12226      1    127    271       1866.    
  12227      1    127    273       1866.    
  12228      1    127    277       1866.    
  12229      1    127    286       1866.    
  12230      1    127    290       1866.    
  12231      1    127    294       1866.    
  12232      1    127    299       1866.    
  12233      1    127    310       1866.    
  12234      1    127    311       1866.    
  12235      1    127    324       1866.    
  12236      1    128    267       1866.    
  12237      1    128    270       1866.    
  12238      1    128    271       1866.    
  12239      1    128    273       1866.    
  12240      1    128    276       1866.    
  12241      1    128    286       1866.    
  12242      1    128    287       1866.    
  12243      1    128    288       1866.    
  12244      1    128    290       1866.    
  12245      1    128    294       1866.    
  12246      1    128    299       1866.    
  12247      1    128    303       1866.    
  12248      1    128    309       1866.    
  12249      1    128    310       1866.    
  12250      1    128    311       1866.    
  12251      1    128    323       1866.    
  12252      1    129    268       1866.    
  12253      1    129    269       1866.    
  12254      1    129    271       1866.    
  12255      1    129    272       1866.    
  12256      1    129    273       1866.    
  12257      1    129    276       1866.    
  12258      1    129    277       1866.    
  12259      1    129    289       1866.    
  12260      1    129    290       1866.    
  12261      1    129    293       1866.    
  12262      1    129    299       1866.    
  12263      1    129    300       1866.    
  12264      1    129    301       1866.    
  12265      1    129    302       1866.    
  12266      1    129    305       1866.    
  12267      1    129    307       1866.    
  12268      1    129    308       1866.    
  12269      1    129    311       1866.    
  12270      1    130    273       1866.    
  12271      1    130    274       1866.    
  12272      1    130    276       1866.    
  12273      1    130    277       1866.    
  12274      1    130    288       1866.    
  12275      1    130    289       1866.    
  12276      1    130    290       1866.    
  12277      1    130    291       1866.    
  12278      1    130    292       1866.    
  12279      1    130    299       1866.    
  12280      1    130    303       1866.    
  12281      1    130    304       1866.    
  12282      1    130    305       1866.    
  12283      1    130    306       1866.    
  12284      1    130    310       1866.    
  12285      1    131    274       1866.    
  12286      1    131    277       1866.    
  12287      1    131    287       1866.    
  12288      1    131    289       1866.    
  12289      1    131    292       1866.    
  12290      1    131    293       1866.    
  12291      1    131    294       1866.    
  12292      1    131    299       1866.    
  12293      1    131    303       1866.    
  12294      1    131    310       1866.    
  12295      1    132    274       1866.    
  12296      1    132    276       1866.    
  12297      1    132    283       1866.    
  12298      1    132    288       1866.    
  12299      1    132    295       1866.    
  12300      1    132    296       1866.    
  12301      1    132    297       1866.    
  12302      1    132    299       1866.    
  12303      1    132    301       1866.    
  12304      1    132    302       1866.    
  12305      1    132    310       1866.    
  12306      1    133    275       1866.    
  12307      1    133    276       1866.    
  12308      1    133    283       1866.    
  12309      1    133    288       1866.    
  12310      1    133    297       1866.    
  12311      1    133    298       1866.    
  12312      1    133    300       1866.    
  12313      1    133    301       1866.    
  12314      1    133    304       1866.    
  12315      1    133    310       1866.    
  12316      1    133    317       1866.    
  12317      1    134    275       1866.    
  12318      1    134    276       1866.    
  12319      1    134    284       1866.    
  12320      1    134    289       1866.    
  12321      1    134    299       1866.    
  12322      1    134    300       1866.    
  12323      1    134    304       1866.    
  12324      1    134    310       1866.    
  12325      1    134    315       1866.    
  12326      1    134    316       1866.    
  12327      1    135    277       1866.    
  12328      1    135    278       1866.    
  12329      1    135    284       1866.    
  12330      1    135    288       1866.    
  12331      1    135    301       1866.    
  12332      1    135    302       1866.    
  12333      1    135    303       1866.    
  12334      1    135    305       1866.    
  12335      1    135    310       1866.    
  12336      1    135    313       1866.    
  12337      1    135    314       1866.    
  12338      1    136    279       1866.    
  12339      1    136    282       1866.    
  12340      1    136    285       1866.    
  12341      1    136    286       1866.    
  12342      1    136    287       1866.    
  12343      1    136    301       1866.    
  12344      1    136    304       1866.    
  12345      1    136    308       1866.    
  12346      1    136    309       1866.    
  12347      1    136    310       1866.    
  12348      1    136    312       1866.    
  12349      1    137    280       1866.    
  12350      1    137    282       1866.    
  12351      1    137    285       1866.    
  12352      1    137    302       1866.    
  12353      1    137    303       1866.    
  12354      1    137    306       1866.    
  12355      1    137    307       1866.    
  12356      1    137    309       1866.    
  12357      1    137    311       1866.    
  12358      1    138    281       1866.    
  12359      1    138    282       1866.    
  12360      1    138    284       1866.    
  12361      1    138    302       1866.    
  12362      1    138    307       1866.    
  12363      1    139    282       1866.    
  12364      1    139    283       1866.    
  12365      1    139    284       1866.    
  12366      1    139    302       1866.    
  12367      1    139    303       1866.    
  12368      1    139    305       1866.    
  12369      1    139    306       1866.    
  12370      1    140    302       1866.    
  12371      1    140    303       1866.    
  12372      1    140    304       1866.    
  12373      1    140    305       1866.    
  12374      1    140    306       1866.    
  12375      1    140    307       1866.    
  12376      1    141    302       1866.    

  12376 WELLS

  54036 DRAINS



                           RECHARGE
 READING ON UNIT   19 WITH FORMAT: (342E15.6)          
 
 SOLVING FOR HEAD 

    ------------------------------------------------
       NWT REQUIRED            8 OUTER ITERATIONS 
       AND A TOTAL OF         12 INNER ITERATIONS.
    ------------------------------------------------

 OUTPUT CONTROL FOR STRESS PERIOD    1   TIME STEP    1
    SAVE HEAD FOR ALL LAYERS

 HEAD WILL BE SAVED ON UNIT   51 AT END OF TIME STEP    1, STRESS PERIOD    1
1
  VOLUMETRIC BUDGET FOR ENTIRE MODEL AT END OF TIME STEP    1, STRESS PERIOD   1
  ------------------------------------------------------------------------------

     CUMULATIVE VOLUMES      L**3       RATES FOR THIS TIME STEP      L**3/T
     ------------------                 ------------------------

           IN:                                      IN:
           ---                                      ---
             STORAGE =     2186245.0000               STORAGE =     2186245.0000
       CONSTANT HEAD =           0.0000         CONSTANT HEAD =           0.0000
               WELLS =     2965680.2500                 WELLS =     2965680.2500
              DRAINS =           0.0000                DRAINS =           0.0000
            RECHARGE =      371767.2188              RECHARGE =      371767.2188

            TOTAL IN =     5523692.0000              TOTAL IN =     5523692.0000

          OUT:                                     OUT:
          ----                                     ----
             STORAGE =     3095961.5000               STORAGE =     3095961.5000
       CONSTANT HEAD =           0.0000         CONSTANT HEAD =           0.0000
               WELLS =      576101.6875                 WELLS =      576101.6875
              DRAINS =     1851692.3750                DRAINS =     1851692.3750
            RECHARGE =           0.0000              RECHARGE =           0.0000

           TOTAL OUT =     5523755.5000             TOTAL OUT =     5523755.5000

            IN - OUT =         -63.5000              IN - OUT =         -63.5000

 PERCENT DISCREPANCY =          -0.00     PERCENT DISCREPANCY =          -0.00






         TIME SUMMARY AT END OF TIME STEP    1 IN STRESS PERIOD    1
                    SECONDS     MINUTES      HOURS       DAYS        YEARS
                    -----------------------------------------------------------
   TIME STEP LENGTH  86400.      1440.0      24.000      1.0000     2.73785E-03
 STRESS PERIOD TIME  86400.      1440.0      24.000      1.0000     2.73785E-03
         TOTAL TIME  86400.      1440.0      24.000      1.0000     2.73785E-03
1

 Run end date and time (yyyy/mm/dd hh:mm:ss): 2020/06/19 12:51:23
 Elapsed run time:  0.699 Seconds

