                                  MODFLOW-NWT-SWR1 
      U.S. GEOLOGICAL SURVEY MODULAR FINITE-DIFFERENCE GROUNDWATER-FLOW MODEL
                             VERSION 1.1.4 4/01/2018
                    BASED ON MODFLOW-2005 VERSION 1.12.00 02/03/2017

 LIST FILE: C:/GitHub/FUSE/Modflow/output/Bhima_transient.list
                         UNIT    2

 OPENING C:/GitHub/FUSE/Modflow/output/Bhima_transient.dis
 FILE TYPE:DIS   UNIT   11   STATUS:OLD    
 FORMAT:FORMATTED              ACCESS:SEQUENTIAL          

 OPENING C:/GitHub/FUSE/Modflow/output/Bhima_transient.bas
 FILE TYPE:BAS6   UNIT   13   STATUS:OLD    
 FORMAT:FORMATTED              ACCESS:SEQUENTIAL          

 OPENING C:/GitHub/FUSE/Modflow/output/Bhima_transient.upw
 FILE TYPE:UPW   UNIT   31   STATUS:OLD    
 FORMAT:FORMATTED              ACCESS:SEQUENTIAL          

 OPENING C:/GitHub/FUSE/Modflow/output/Bhima_transient.nwt
 FILE TYPE:NWT   UNIT   32   STATUS:OLD    
 FORMAT:FORMATTED              ACCESS:SEQUENTIAL          

 OPENING C:/GitHub/FUSE/Modflow/output/Bhima_transient.drn
 FILE TYPE:DRN   UNIT   21   STATUS:OLD    
 FORMAT:FORMATTED              ACCESS:SEQUENTIAL          

 OPENING C:/GitHub/FUSE/Modflow/output/Bhima_transient.wel
 FILE TYPE:WEL   UNIT   20   STATUS:OLD    
 FORMAT:FORMATTED              ACCESS:SEQUENTIAL          

 OPENING C:/GitHub/FUSE/Modflow/output/Bhima_transient.rch
 FILE TYPE:RCH   UNIT   19   STATUS:OLD    
 FORMAT:FORMATTED              ACCESS:SEQUENTIAL          

 OPENING C:/GitHub/FUSE/Modflow/output/Bhima_transient.oc
 FILE TYPE:OC   UNIT   14   STATUS:OLD    
 FORMAT:FORMATTED              ACCESS:SEQUENTIAL          

 OPENING C:/GitHub/FUSE/Modflow/output/Bhima_transient.hds
 FILE TYPE:DATA(BINARY)   UNIT   51   STATUS:REPLACE
 FORMAT:BINARY                 ACCESS:SEQUENTIAL          

 OPENING C:/GitHub/FUSE/Modflow/output/Bhima_transient.out
 FILE TYPE:DATA   UNIT   50   STATUS:UNKNOWN
 FORMAT:FORMATTED              ACCESS:SEQUENTIAL          

 BAS -- BASIC PACKAGE, VERSION 1.1.4, 4/01/2018 INPUT READ FROM UNIT   13
 
 MODFLOW was compiled using mixed precision
 Precision of REAL variables:           6
 Precision of DOUBLE PRECISION variables:          15

 DISCRETIZATION INPUT DATA READ FROM UNIT   11
 # DIS package for  MODFLOW-NWT, generated by Flopy.
    1 LAYERS       566 ROWS       586 COLUMNS
    1 STRESS PERIOD(S) IN SIMULATION
 MODEL TIME UNIT IS DAYS
 MODEL LENGTH UNIT IS METERS
  Confining bed flag for each layer:
   0

                     DELR =   500.000    

                     DELC =   500.000    



           TOP ELEVATION OF LAYER 1
 READING ON UNIT   11 WITH FORMAT: (586E15.6)          



             MODEL LAYER BOTTOM EL. FOR LAYER   1
 READING ON UNIT   11 WITH FORMAT: (586E15.6)          


 STRESS PERIOD     LENGTH       TIME STEPS     MULTIPLIER FOR DELT    SS FLAG
 ----------------------------------------------------------------------------
        1         1.000000          1                    1.000         TR

 TRANSIENT SIMULATION



 
 # BAS6 package for  MODFLOW-NWT, generated by Flopy.                            
 THE FREE FORMAT OPTION HAS BEEN SELECTED



                     BOUNDARY ARRAY FOR LAYER   1
 READING ON UNIT   13 WITH FORMAT: (586I10)            

 AQUIFER HEAD WILL BE SET TO  -999.99     AT ALL NO-FLOW NODES (IBOUND=0).



                       INITIAL HEAD FOR LAYER   1
 READING ON UNIT   13 WITH FORMAT: (586E15.6)          
 # OC package for  MODFLOW-NWT, generated by Flopy.

 OUTPUT CONTROL IS SPECIFIED ONLY AT TIME STEPS FOR WHICH OUTPUT IS DESIRED
 COMPACT CELL-BY-CELL BUDGET FILES WILL BE WRITTEN
 AUXILIARY DATA WILL BE SAVED IN CELL-BY-CELL BUDGET FILES
 HEAD PRINT FORMAT CODE IS   0    DRAWDOWN PRINT FORMAT CODE IS   0
 HEADS WILL BE SAVED ON UNIT   51    DRAWDOWNS WILL BE SAVED ON UNIT    0
 # NWT package for  MODFLOW-NWT, generated by Flopy.

 NWT1 -- Newton Solver, VERSION 1.1.4, 4/01/2018
         INPUT READ FROM UNIT 32

 SIMPLE OPTION:
 DEFAULT SOLVER INPUT VALUES REFLECT NEARLY LINEAR MODEL
 ***GMRES linear solver will be used***
 
   CONVERGENCE CRITERION OF   0.100000E-01 FOR HEAD SOLUTION
   AND A TOLERANCE OF   0.350000E+04 FOR FLOW SOLUTION AND 
   A MAXIMUM OF   100 OUTER ITERATIONS. 


   D-B-D REDUCTION FACTOR OF    0.970000E+00 AND 
   A D-B-D INCREASE FACTOR OF    0.100000E-03 AND 
   A D-B-D RELAXATION OF    0.000000E+00 AND 
   A MOMENTUM FACTOR OF    0.000000E+00 .


 ***BACKTRACKING IS INACTIVE***
 GMRES -- LINEAR SOLUTION BY GMRES PACKAGE 
     adapted for HYDROTHERM by Kipp and others (2008)
     using software originally developed by Saad (1990) 32
     using algorithms described in Saad (2003)

 UPW1 -- UPSTREAM WEIGHTING FLOW PACKAGE, VERSION 1.1.4, 4/01/2018
         INPUT READ FROM UNIT 31

 # UPW package for  MODFLOW-NWT, generated by Flopy.
 No named parameters

   LAYER FLAGS:
 LAYER       LAYTYP          LAYAVG    CHANI           LAYVKA           LAYWET
 ---------------------------------------------------------------------------
    1             1             0     1.000E+00             1             0

   INTERPRETATION OF LAYER FLAGS:
                        INTERBLOCK     HORIZONTAL    DATA IN
         LAYER TYPE   TRANSMISSIVITY   ANISOTROPY   ARRAY VKA   WETTABILITY
 LAYER   (LAYTYP)        (LAYAVG)      (CHANI)     (LAYVKA)       (LAYWET)
 ---------------------------------------------------------------------------
    1   CONVERTIBLE      HARMONIC     1.000E+00    ANISOTROPY  NON-WETTABLE



              HYD. COND. ALONG ROWS FOR LAYER   1
 READING ON UNIT   31 WITH FORMAT: (586E15.6)          

  HORIZ. TO VERTICAL ANI. =   5.00000     FOR LAYER   1



                   SPECIFIC STORAGE FOR LAYER   1
 READING ON UNIT   31 WITH FORMAT: (586E15.6)          



                     SPECIFIC YIELD FOR LAYER   1
 READING ON UNIT   31 WITH FORMAT: (586E15.6)          

 WEL -- WELL PACKAGE FOR NWT VERSION 1.1.4,  4/01/2018 INPUT READ FROM UNIT   20
 # WEL package for  MODFLOW-NWT, generated by Flopy.
 No named parameters
 MAXIMUM OF  81426 ACTIVE WELLS AT ONE TIME
 No named parameters
 
 NEGATIVE PUMPING RATES WILL BE REDUCED IF HEAD 
 FALLS WITHIN THE INTERVAL PHIRAMP TIMES THE CELL 
 THICKNESS. THE VALUE SPECIFIED FOR PHIRAMP IS  0.10000E+00
 WELLS WITH REDUCED PUMPING WILL BE REPORTED TO FILE UNIT NUMBER   50


     0 Well parameters

 DRN -- DRAIN PACKAGE, VERSION 7, 5/2/2005 INPUT READ FROM UNIT   21
 # DRN package for  MODFLOW-NWT, generated by Flopy.
 No named parameters
 MAXIMUM OF 331676 ACTIVE DRAINS AT ONE TIME
 LISTS OF DRAIN CELLS WILL NOT BE PRINTED


     0 Drain parameters

 RCH -- RECHARGE PACKAGE, VERSION 7, 5/2/2005 INPUT READ FROM UNIT   19
 # RCH package for  MODFLOW-NWT, generated by Flopy.
 No named parameters
 OPTION 3 -- RECHARGE TO HIGHEST ACTIVE NODE IN EACH VERTICAL COLUMN


     0 Recharge parameters
1
                            STRESS PERIOD NO.    1, LENGTH =   1.000000    
                            -----------------------------------------------

                              NUMBER OF TIME STEPS =     1

                               MULTIPLIER FOR DELT =     1.000

                            INITIAL TIME STEP SIZE =   1.000000    

 WELL NO.  LAYER   ROW   COL   STRESS RATE         
 --------------------------------------------------
      1      1    180      7     -0.4368    
      2      1    181      7     -0.4240    
      3      1    180      8      -6.071    
      4      1    181      8      -5.331    
      5      1    180      9      -4.141    
      6      1    181      9      -3.652    
      7      1    189      9     -0.9067    
      8      1    190      9      -1.239    
      9      1    191      9     -0.1232    
     10      1    189     10      -2.276    
     11      1    190     10      -3.075    
     12      1    191     10     -0.3217    
     13      1    189     11      -2.249    
     14      1    190     11      -3.075    
     15      1    191     11     -0.3494    
     16      1    189     12      -2.221    
     17      1    190     12      -3.075    
     18      1    191     12     -0.3769    
     19      1    178     13      -3094.    
     20      1    179     13      -4003.    
     21      1    180     13      -256.8    
     22      1    189     13     -0.2731    
     23      1    190     13     -0.3572    
     24      1    191     13     -0.4357E-01
     25      1    192     13      -138.5    
     26      1    193     13      -5968.    
     27      1    194     13      -4946.    
     28      1    178     14      -3867.    
     29      1    179     14      -4961.    
     30      1    180     14      -353.6    
     31      1    189     14     -0.2346    
     32      1    190     14     -0.3567    
     33      1    191     14     -0.5356E-01
     34      1    192     14      -86.64    
     35      1    193     14      -5564.    
     36      1    194     14      -4570.    
     37      1    170     15     -0.8396    
     38      1    171     15      -5.904    
     39      1    172     15      -4.176    
     40      1    189     15      -1.994    
     41      1    190     15      -2.868    
     42      1    191     15     -0.4281    
     43      1    170     16     -0.6754    
     44      1    171     16      -4.966    
     45      1    172     16      -3.491    
     46      1    189     16      -1.268    
     47      1    190     16      -1.821    
     48      1    191     16     -0.2827    
     49      1    139     18      -1.796    
     50      1    140     18      -3.948    
     51      1    141     18      -1.518    
     52      1    145     18      -4.729    
     53      1    146     18      -4.970    
     54      1    147     18      -2.559    
     55      1    148     18      -2.659    
     56      1    149     18      -2.760    
     57      1    150     18      -1.688    
     58      1    180     18      -2.121    
     59      1    181     18      -2.308    
     60      1    139     19      -11.35    
     61      1    140     19      -24.21    
     62      1    141     19      -9.098    
     63      1    145     19      -22.63    
     64      1    146     19      -23.05    
     65      1    147     19      -11.36    
     66      1    148     19      -11.36    
     67      1    149     19      -11.36    
     68      1    150     19      -6.811    
     69      1    180     19      -4.066    
     70      1    181     19      -4.419    
     71      1    130     20      -5.255    
     72      1    131     20      -7.897    
     73      1    132     20      -1.313    
     74      1    139     20      -11.14    
     75      1    140     20      -24.21    
     76      1    141     20      -15.49    
     77      1    142     20      -10.26    
     78      1    143     20      -10.47    
     79      1    144     20      -10.68    
     80      1    145     20      -13.17    
     81      1    146     20      -12.52    
     82      1    147     20      -6.043    
     83      1    148     20      -5.943    
     84      1    149     20      -5.842    
     85      1    150     20      -3.494    
     86      1    159     20      -1.086    
     87      1    160     20      -6.615    
     88      1    161     20      -4.549    
     89      1    180     20     -0.9742    
     90      1    181     20      -1.036    
     91      1    130     21      -16.35    
     92      1    131     21      -24.21    
     93      1    132     21      -4.106    
     94      1    139     21      -10.92    
     95      1    140     21      -24.21    
     96      1    141     21      -24.21    
     97      1    142     21      -24.21    
     98      1    143     21      -24.21    
     99      1    144     21      -24.21    
    100      1    145     21      -2.011    
    101      1    159     21      -1.803    
    102      1    160     21      -11.36    
    103      1    161     21      -7.790    
    104      1    130     22      -7.090    
    105      1    131     22      -10.42    
    106      1    132     22      -1.811    
    107      1    139     22      -3.854    
    108      1    140     22      -8.502    
    109      1    141     22      -8.289    
    110      1    142     22      -8.076    
    111      1    143     22      -7.863    
    112      1    144     22      -7.650    
    113      1    145     22      -15.89    
    114      1    146     22      -16.42    
    115      1    147     22      -8.067    
    116      1    148     22      -8.167    
    117      1    149     22      -8.267    
    118      1    150     22      -5.237    
    119      1    159     22      -1.703    
    120      1    160     22      -11.36    
    121      1    161     22      -7.890    
    122      1    169     22      -3.847    
    123      1    170     22      -3.853    
    124      1    145     23      -21.77    
    125      1    146     23      -23.51    
    126      1    147     23      -11.36    
    127      1    148     23      -11.36    
    128      1    149     23      -11.36    
    129      1    150     23      -7.211    
    130      1    152     23     -0.6467E-03
    131      1    153     23     -0.6090E-01
    132      1    154     23     -0.4169E-01
    133      1    159     23      -1.604    
    134      1    160     23      -11.36    
    135      1    161     23      -7.989    
    136      1    169     23      -3.610    
    137      1    170     23      -3.609    
    138      1    130     24      -12.64    
    139      1    131     24      -19.68    
    140      1    132     24      -3.898    
    141      1    145     24      -21.56    
    142      1    146     24      -23.13    
    143      1    147     24     -0.5344    
    144      1    148     24      -2.637    
    145      1    149     24      -11.36    
    146      1    150     24      -7.310    
    147      1    152     24      -5.801    
    148      1    153     24      -11.36    
    149      1    154     24      -3.784    
    150      1    159     24      -1.505    
    151      1    160     24      -11.36    
    152      1    161     24      -8.088    
    153      1    130     25      -14.74    
    154      1    131     25      -22.85    
    155      1    132     25      -5.906    
    156      1    133     25      -1.780    
    157      1    134     25     -0.1013    
    158      1    145     25      -17.55    
    159      1    146     25      -19.02    
    160      1    147     25      -2.220    
    161      1    148     25      -3.612    
    162      1    149     25      -8.938    
    163      1    150     25      -5.770    
    164      1    152     25      -4.342    
    165      1    153     25      -8.544    
    166      1    154     25      -2.889    
    167      1    159     25     -0.9897    
    168      1    160     25      -7.854    
    169      1    161     25      -5.590    
    170      1    204     25      -1.803    
    171      1    205     25      -2.139    
    172      1    132     26      -19.04    
    173      1    133     26      -24.21    
    174      1    134     26      -1.410    
    175      1    146     26     -0.3226    
    176      1    147     26      -11.36    
    177      1    148     26      -9.270    
    178      1    204     26      -2.596    
    179      1    205     26      -3.084    
    180      1    206     26     -0.9346E-02
    181      1    123     27     -0.6873    
    182      1    124     27     -0.6031    
    183      1    132     27      -18.83    
    184      1    133     27      -24.21    
    185      1    134     27      -8.956    
    186      1    135     27      -7.390    
    187      1    139     27      -3.561    
    188      1    140     27      -9.138    
    189      1    141     27      -4.168    
    190      1    143     27      -6.924    
    191      1    144     27      -9.977    
    192      1    145     27      -1.394    
    193      1    146     27     -0.2241    
    194      1    147     27      -11.36    
    195      1    148     27      -9.369    
    196      1    204     27     -0.1845    
    197      1    205     27     -0.1962    
    198      1    206     27     -0.1364E-02
    199      1    123     28      -2.974    
    200      1    124     28      -2.551    
    201      1    132     28      -18.62    
    202      1    133     28      -24.21    
    203      1    134     28      -24.21    
    204      1    135     28      -22.28    
    205      1    139     28      -9.444    
    206      1    140     28      -24.21    
    207      1    141     28      -11.01    
    208      1    143     28      -16.96    
    209      1    144     28      -24.21    
    210      1    145     28      -3.490    
    211      1    146     28     -0.1261    
    212      1    147     28      -11.36    
    213      1    148     28      -9.467    
    214      1    110     29     -0.9686    
    215      1    111     29      -1.051    
    216      1    123     29      -1.555    
    217      1    124     29      -1.333    
    218      1    132     29      -18.41    
    219      1    133     29      -24.21    
    220      1    134     29      -24.21    
    221      1    135     29      -22.49    
    222      1    139     29      -3.586    
    223      1    140     29      -9.191    
    224      1    141     29      -12.34    
    225      1    142     29      -15.44    
    226      1    143     29      -21.57    
    227      1    144     29      -24.21    
    228      1    145     29      -3.699    
    229      1    146     29     -0.1981E-01
    230      1    147     29      -3.627    
    231      1    148     29      -2.969    
    232      1    159     29     -0.7908    
    233      1    160     29      -8.998    
    234      1    161     29      -9.095    
    235      1    162     29      -9.192    
    236      1    163     29      -5.571    
    237      1    110     30      -2.662    
    238      1    111     30      -2.862    
    239      1    132     30      -18.20    
    240      1    133     30      -24.21    
    241      1    134     30      -24.21    
    242      1    135     30      -22.70    
    243      1    141     30      -12.79    
    244      1    142     30      -24.21    
    245      1    143     30      -24.21    
    246      1    144     30      -24.21    
    247      1    145     30      -3.907    
    248      1    159     30     -0.8913    
    249      1    160     30      -10.97    
    250      1    161     30      -10.99    
    251      1    162     30      -11.36    
    252      1    163     30      -7.187    
    253      1    164     30     -0.7766    
    254      1    165     30     -0.5843    
    255      1    166     30     -0.3929    
    256      1    167     30     -0.4321    
    257      1    168     30     -0.4713    
    258      1    169     30     -0.5104    
    259      1    170     30     -0.5496    
    260      1    171     30     -0.5887    
    261      1    172     30     -0.6279    
    262      1    173     30     -0.6670    
    263      1    174     30     -0.7061    
    264      1    175     30     -0.7452    
    265      1    176     30     -0.4071    
    266      1    178     30     -0.5480    
    267      1    179     30     -0.9015    
    268      1    180     30     -0.1985    
    269      1    102     31      -2.379    
    270      1    103     31      -9.332    
    271      1    104     31      -5.549    
    272      1    108     31      -7.301    
    273      1    109     31      -10.22    
    274      1    110     31      -3.887    
    275      1    111     31      -2.951    
    276      1    112     31      -1.864    
    277      1    113     31      -1.530    
    278      1    132     31      -17.99    
    279      1    133     31      -24.21    
    280      1    134     31      -24.21    
    281      1    135     31      -22.91    
    282      1    141     31      -12.58    
    283      1    142     31      -24.21    
    284      1    143     31      -24.21    
    285      1    144     31      -24.21    
    286      1    145     31      -4.114    
    287      1    147     31      -10.33    
    288      1    148     31      -9.091    
    289      1    161     31      -2.584    
    290      1    162     31      -11.36    
    291      1    163     31      -11.36    
    292      1    164     31      -11.36    
    293      1    165     31      -7.721    
    294      1    166     31      -4.599    
    295      1    167     31      -4.599    
    296      1    168     31      -4.599    
    297      1    169     31      -4.599    
    298      1    170     31      -4.599    
    299      1    171     31      -4.599    
    300      1    172     31      -4.599    
    301      1    173     31      -4.599    
    302      1    174     31      -4.599    
    303      1    175     31      -4.599    
    304      1    176     31      -2.439    
    305      1    178     31      -2.875    
    306      1    179     31      -4.599    
    307      1    180     31      -1.010    
    308      1    102     32      -4.297    
    309      1    103     32      -17.13    
    310      1    104     32      -10.17    
    311      1    108     32      -12.27    
    312      1    109     32      -17.13    
    313      1    110     32      -4.807    
    314      1    111     32      -2.995    
    315      1    112     32      -2.995    
    316      1    113     32      -2.449    
    317      1    128     32     -0.3326E-02
    318      1    132     32      -17.79    
    319      1    133     32      -24.21    
    320      1    134     32      -24.21    
    321      1    135     32      -23.12    
    322      1    141     32      -10.94    
    323      1    142     32      -21.23    
    324      1    143     32      -21.02    
    325      1    144     32      -20.81    
    326      1    145     32      -3.680    
    327      1    147     32      -11.09    
    328      1    148     32      -9.856    
    329      1    161     32      -2.487    
    330      1    162     32      -11.36    
    331      1    163     32      -11.36    
    332      1    164     32      -11.36    
    333      1    165     32      -7.778    
    334      1    166     32      -4.600    
    335      1    167     32      -4.600    
    336      1    168     32      -4.600    
    337      1    169     32      -4.600    
    338      1    170     32      -4.600    
    339      1    171     32      -4.600    
    340      1    172     32      -4.600    
    341      1    173     32      -4.600    
    342      1    174     32      -4.044    
    343      1    175     32      -2.745    
    344      1    176     32      -1.458    
    345      1    178     32      -1.621    
    346      1    179     32      -2.589    
    347      1    180     32     -0.5803    
    348      1    206     32      -1.806    
    349      1    207     32      -1.740    
    350      1    102     33      -4.150    
    351      1    103     33      -17.13    
    352      1    104     33      -361.2    
    353      1    105     33      -891.3    
    354      1    106     33      -410.2    
    355      1    107     33      -14.11    
    356      1    108     33      -954.7    
    357      1    109     33      -1356.    
    358      1    110     33      -190.0    
    359      1    111     33      -2.949    
    360      1    112     33     -0.3991    
    361      1    113     33     -0.7648    
    362      1    114     33      -2.647    
    363      1    115     33      -1.792    
    364      1    126     33     -0.7439    
    365      1    127     33      -2.873    
    366      1    128     33      -1.687    
    367      1    132     33      -17.58    
    368      1    133     33      -24.21    
    369      1    134     33      -24.21    
    370      1    135     33      -23.32    
    371      1    147     33      -11.00    
    372      1    148     33      -9.953    
    373      1    161     33      -2.391    
    374      1    162     33      -11.36    
    375      1    163     33      -11.36    
    376      1    164     33      -11.36    
    377      1    165     33      -7.835    
    378      1    166     33      -4.600    
    379      1    167     33      -4.600    
    380      1    168     33      -4.600    
    381      1    169     33      -4.600    
    382      1    170     33      -4.600    
    383      1    171     33      -4.600    
    384      1    172     33      -4.600    
    385      1    173     33      -4.600    
    386      1    174     33      -3.231    
    387      1    206     33      -2.697    
    388      1    207     33      -2.608    
    389      1    231     33      -13.76    
    390      1    232     33      -131.3    
    391      1    233     33      -102.3    
    392      1    102     34      -17.28    
    393      1    103     34      -85.53    
    394      1    104     34      -494.9    
    395      1    105     34      -1117.    
    396      1    106     34      -519.2    
    397      1    107     34      -17.13    
    398      1    108     34      -1043.    
    399      1    109     34      -1471.    
    400      1    110     34      -214.7    
    401      1    111     34      -2.967    
    402      1    112     34     -0.3324    
    403      1    113     34     -0.7334    
    404      1    114     34      -2.611    
    405      1    115     34      -1.759    
    406      1    126     34     -0.7271    
    407      1    127     34      -2.887    
    408      1    128     34      -4.066    
    409      1    129     34      -5.968    
    410      1    130     34      -2.693    
    411      1    132     34      -17.37    
    412      1    133     34      -24.21    
    413      1    134     34      -17.92    
    414      1    135     34      -16.29    
    415      1    143     34      -5.887    
    416      1    144     34      -9.272    
    417      1    145     34      -1.861    
    418      1    147     34      -6.458    
    419      1    148     34      -6.391    
    420      1    149     34      -4.830    
    421      1    150     34      -3.597    
    422      1    156     34      -4.048    
    423      1    157     34      -5.598    
    424      1    158     34     -0.6251    
    425      1    161     34      -1.090    
    426      1    162     34      -5.279    
    427      1    163     34      -5.184    
    428      1    164     34      -5.088    
    429      1    165     34      -4.791    
    430      1    166     34      -4.600    
    431      1    167     34      -4.600    
    432      1    168     34      -4.600    
    433      1    169     34      -4.600    
    434      1    170     34      -4.600    
    435      1    171     34      -4.600    
    436      1    172     34      -4.600    
    437      1    173     34      -4.600    
    438      1    174     34      -3.270    
    439      1    206     34     -0.2561    
    440      1    207     34     -0.2299    
    441      1    231     34      -113.5    
    442      1    232     34      -1088.    
    443      1    233     34      -805.4    
    444      1    102     35      -455.3    
    445      1    103     35      -2022.    
    446      1    104     35      -1763.    
    447      1    105     35      -1339.    
    448      1    106     35      -631.2    
    449      1    107     35      -17.13    
    450      1    108     35      -5.296    
    451      1    110     35      -2.534    
    452      1    111     35      -2.995    
    453      1    112     35      -2.995    
    454      1    113     35      -2.526    
    455      1    126     35     -0.7025    
    456      1    127     35      -2.887    
    457      1    128     35      -11.04    
    458      1    129     35      -23.33    
    459      1    130     35      -10.41    
    460      1    132     35      -17.17    
    461      1    133     35      -24.21    
    462      1    134     35      -3.282    
    463      1    143     35      -15.51    
    464      1    144     35      -24.21    
    465      1    145     35      -4.937    
    466      1    148     35      -1.211    
    467      1    149     35      -11.36    
    468      1    150     35      -8.382    
    469      1    156     35      -8.265    
    470      1    157     35      -11.36    
    471      1    158     35      -1.328    
    472      1    165     35      -2.319    
    473      1    166     35      -4.600    
    474      1    167     35      -4.600    
    475      1    168     35      -4.600    
    476      1    169     35      -4.600    
    477      1    170     35      -4.600    
    478      1    171     35      -4.600    
    479      1    172     35      -4.600    
    480      1    173     35      -4.600    
    481      1    174     35      -3.308    
    482      1    193     35     -0.4826    
    483      1    194     35     -0.7019    
    484      1    195     35     -0.8335    
    485      1    196     35     -0.8214    
    486      1    231     35      -68.46    
    487      1    232     35      -697.1    
    488      1    233     35      -514.9    
    489      1    102     36      -320.3    
    490      1    103     36      -1461.    
    491      1    104     36      -1262.    
    492      1    105     36      -943.2    
    493      1    106     36      -447.2    
    494      1    107     36      -11.77    
    495      1    108     36      -5.301    
    496      1    109     36      -2.419    
    497      1    110     36      -3.329    
    498      1    111     36      -3.503    
    499      1    112     36      -3.516    
    500      1    113     36      -3.244    
    501      1    114     36      -1.660    
    502      1    115     36      -1.183    
    503      1    126     36     -0.8349    
    504      1    127     36      -3.568    
    505      1    128     36      -9.143    
    506      1    129     36      -17.74    
    507      1    130     36      -11.38    
    508      1    131     36      -6.260    
    509      1    132     36      -9.977    
    510      1    133     36      -11.31    
    511      1    134     36      -7.201    
    512      1    135     36      -6.607    
    513      1    141     36      -3.606    
    514      1    142     36      -7.663    
    515      1    143     36      -8.716    
    516      1    144     36      -9.061    
    517      1    145     36      -1.874    
    518      1    148     36     -0.3864    
    519      1    149     36      -3.772    
    520      1    150     36      -2.743    
    521      1    156     36      -2.233    
    522      1    157     36      -3.009    
    523      1    158     36     -0.3612    
    524      1    161     36      -4.643    
    525      1    162     36      -25.35    
    526      1    163     36      -25.63    
    527      1    164     36      -25.90    
    528      1    165     36      -16.18    
    529      1    166     36      -6.055    
    530      1    167     36      -2.658    
    531      1    168     36     -0.7943    
    532      1    169     36     -0.7558    
    533      1    170     36     -0.7173    
    534      1    171     36     -0.6788    
    535      1    172     36     -0.6403    
    536      1    173     36     -0.6018    
    537      1    174     36     -0.4117    
    538      1    193     36      -13.05    
    539      1    194     36      -15.81    
    540      1    195     36      -15.81    
    541      1    196     36      -13.65    
    542      1    102     37      -1.526    
    543      1    103     37      -7.335    
    544      1    104     37      -4.670    
    545      1    108     37      -4.943    
    546      1    109     37      -7.335    
    547      1    110     37      -4.952    
    548      1    111     37      -4.461    
    549      1    112     37      -4.461    
    550      1    113     37      -4.461    
    551      1    114     37      -4.461    
    552      1    115     37      -3.145    
    553      1    126     37     -0.9737    
    554      1    127     37      -4.299    
    555      1    128     37      -7.289    
    556      1    129     37      -12.13    
    557      1    130     37      -12.13    
    558      1    131     37      -12.13    
    559      1    132     37      -3.733    
    560      1    134     37      -10.28    
    561      1    135     37      -12.09    
    562      1    136     37     -0.1348E-02
    563      1    141     37      -5.899    
    564      1    142     37      -12.59    
    565      1    143     37      -4.733    
    566      1    160     37     -0.8050E-01
    567      1    161     37      -5.959    
    568      1    162     37      -32.01    
    569      1    163     37      -31.74    
    570      1    164     37      -31.47    
    571      1    165     37      -18.99    
    572      1    166     37      -6.061    
    573      1    167     37      -2.404    
    574      1    168     37     -0.4409    
    575      1    169     37     -0.9731E-01
    576      1    185     37     -0.6978    
    577      1    186     37      -3.705    
    578      1    187     37      -2.491    
    579      1    193     37      -9.350    
    580      1    194     37      -11.31    
    581      1    195     37      -8659.    
    582      1    196     37      -8015.    
    583      1    102     38     -0.7130    
    584      1    103     38      -3.495    
    585      1    104     38      -2.214    
    586      1    106     38      -2.054    
    587      1    107     38      -4.088    
    588      1    108     38      -6.270    
    589      1    109     38      -7.335    
    590      1    110     38      -4.976    
    591      1    111     38      -4.461    
    592      1    112     38      -4.461    
    593      1    113     38      -4.107    
    594      1    114     38      -1.711    
    595      1    115     38      -1.194    
    596      1    124     38     -0.1864    
    597      1    125     38      -3.048    
    598      1    126     38      -2.678    
    599      1    127     38      -1.179    
    600      1    128     38      -5.245    
    601      1    129     38      -12.13    
    602      1    130     38      -12.13    
    603      1    131     38      -12.13    
    604      1    132     38      -3.835    
    605      1    134     38      -2.194    
    606      1    135     38      -2.511    
    607      1    136     38     -0.5463E-02
    608      1    141     38      -5.793    
    609      1    142     38      -12.59    
    610      1    143     38      -4.838    
    611      1    147     38      -27.00    
    612      1    148     38      -27.03    
    613      1    159     38     -0.4314    
    614      1    160     38      -32.62    
    615      1    161     38      -27.13    
    616      1    167     38      -4.058    
    617      1    168     38      -6.396    
    618      1    169     38      -1.344    
    619      1    185     38      -3.182    
    620      1    186     38      -16.95    
    621      1    187     38      -11.14    
    622      1    195     38     -0.2933E+05
    623      1    196     38     -0.2677E+05
    624      1    106     39      -3.680    
    625      1    107     39      -7.335    
    626      1    108     39      -7.335    
    627      1    109     39      -7.335    
    628      1    110     39      -5.000    
    629      1    111     39      -4.461    
    630      1    112     39      -4.461    
    631      1    113     39      -3.913    
    632      1    124     39     -0.2338    
    633      1    125     39      -4.299    
    634      1    126     39      -3.398    
    635      1    128     39      -4.427    
    636      1    129     39      -12.13    
    637      1    130     39      -12.13    
    638      1    131     39      -12.10    
    639      1    132     39      -4.005    
    640      1    133     39     -0.2367    
    641      1    134     39     -0.5131E-01
    642      1    136     39     -0.5316    
    643      1    137     39     -0.6417    
    644      1    138     39     -0.7428    
    645      1    139     39     -0.5864    
    646      1    141     39      -5.670    
    647      1    142     39      -12.54    
    648      1    143     39      -5.691    
    649      1    144     39      -1.349    
    650      1    145     39     -0.3406    
    651      1    147     39      -25.87    
    652      1    148     39      -25.86    
    653      1    156     39      -4.788    
    654      1    157     39      -7.157    
    655      1    158     39      -1.123    
    656      1    159     39     -0.1610    
    657      1    160     39      -32.63    
    658      1    161     39      -27.40    
    659      1    167     39      -2.794    
    660      1    168     39      -4.409    
    661      1    169     39     -0.9506    
    662      1    174     39     -0.5689    
    663      1    175     39      -2.357    
    664      1    176     39      -1.439    
    665      1    178     39      -1.404    
    666      1    179     39      -2.568    
    667      1    180     39     -0.7521    
    668      1    185     39      -1.677    
    669      1    186     39      -9.166    
    670      1    187     39      -6.003    
    671      1    195     39     -0.1359E+05
    672      1    196     39     -0.1237E+05
    673      1    104     40      -1.927    
    674      1    105     40      -5.758    
    675      1    106     40      -3.691    
    676      1    107     40      -1.454    
    677      1    108     40      -1.392    
    678      1    109     40      -1.331    
    679      1    110     40     -0.8697    
    680      1    111     40     -0.7345    
    681      1    112     40      -4.305    
    682      1    113     40      -4.385    
    683      1    114     40      -3.839    
    684      1    115     40      -3.876    
    685      1    116     40      -3.913    
    686      1    117     40      -2.269    
    687      1    124     40     -0.1112E-01
    688      1    125     40     -0.2036    
    689      1    126     40     -0.1361    
    690      1    128     40     -0.8571E-01
    691      1    129     40     -0.1687    
    692      1    130     40     -0.6729E-01
    693      1    131     40     -0.1362E-02
    694      1    132     40      -8.093    
    695      1    133     40      -12.13    
    696      1    134     40      -2.154    
    697      1    136     40      -11.86    
    698      1    137     40      -12.13    
    699      1    138     40      -12.13    
    700      1    139     40      -8.633    
    701      1    141     40      -5.381    
    702      1    142     40      -12.13    
    703      1    143     40      -12.13    
    704      1    144     40      -12.13    
    705      1    145     40      -2.982    
    706      1    156     40      -22.38    
    707      1    157     40      -32.63    
    708      1    158     40      -5.177    
    709      1    159     40     -0.1213E-02
    710      1    160     40      -32.52    
    711      1    161     40      -27.67    
    712      1    174     40      -1.530    
    713      1    175     40      -6.396    
    714      1    176     40      -3.872    
    715      1    178     40      -3.517    
    716      1    179     40      -6.396    
    717      1    180     40      -1.886    
    718      1    243     40     -0.6782    
    719      1    244     40     -0.6200    
    720      1    104     41      -2.361    
    721      1    105     41      -7.118    
    722      1    106     41      -3.783    
    723      1    107     41     -0.3393    
    724      1    108     41     -0.1386    
    725      1    110     41     -0.2549    
    726      1    111     41     -0.3553    
    727      1    112     41      -4.261    
    728      1    113     41      -4.415    
    729      1    114     41      -3.994    
    730      1    115     41      -4.090    
    731      1    116     41      -4.461    
    732      1    117     41      -2.846    
    733      1    118     41     -0.6157    
    734      1    119     41     -0.2773    
    735      1    130     41      -1.456    
    736      1    131     41      -2.986    
    737      1    132     41      -7.008    
    738      1    133     41      -8.943    
    739      1    134     41      -4.316    
    740      1    135     41      -3.389    
    741      1    136     41      -8.501    
    742      1    137     41      -8.983    
    743      1    138     41      -12.13    
    744      1    139     41      -9.795    
    745      1    140     41      -3.892    
    746      1    141     41      -7.534    
    747      1    142     41      -12.13    
    748      1    143     41      -9.653    
    749      1    144     41      -7.836    
    750      1    145     41      -1.964    
    751      1    147     41      -11.12    
    752      1    148     41      -11.94    
    753      1    156     41      -22.11    
    754      1    157     41      -32.63    
    755      1    158     41      -18.20    
    756      1    159     41      -15.60    
    757      1    160     41      -16.82    
    758      1    161     41      -16.41    
    759      1    162     41      -16.40    
    760      1    163     41      -11.69    
    761      1    174     41     -0.5901    
    762      1    175     41      -2.495    
    763      1    176     41      -1.499    
    764      1    178     41      -1.266    
    765      1    179     41      -2.285    
    766      1    180     41      -3.577    
    767      1    181     41      -4.216    
    768      1    182     41     -0.6329    
    769      1    185     41      -1.907    
    770      1    186     41      -11.87    
    771      1    187     41      -8.186    
    772      1    243     41      -4.102    
    773      1    244     41      -3.624    
    774      1    106     42      -3.496    
    775      1    107     42      -7.335    
    776      1    108     42      -2.701    
    777      1    110     42      -3.511    
    778      1    111     42      -4.461    
    779      1    112     42      -4.461    
    780      1    113     42      -4.025    
    781      1    115     42      -1.128    
    782      1    116     42      -4.461    
    783      1    117     42      -4.461    
    784      1    118     42      -4.461    
    785      1    119     42      -1.947    
    786      1    130     42      -6.007    
    787      1    131     42      -12.13    
    788      1    132     42      -4.239    
    789      1    134     42      -9.775    
    790      1    135     42      -12.13    
    791      1    136     42     -0.4716    
    792      1    137     42      -1.412    
    793      1    138     42      -12.13    
    794      1    139     42      -12.13    
    795      1    140     42      -12.13    
    796      1    141     42      -12.13    
    797      1    142     42      -12.13    
    798      1    143     42      -5.067    
    799      1    147     42      -29.14    
    800      1    148     42      -31.05    
    801      1    156     42      -21.85    
    802      1    157     42      -32.63    
    803      1    158     42      -32.63    
    804      1    159     42      -32.63    
    805      1    160     42     -0.6479    
    806      1    161     42      -4.420    
    807      1    162     42      -32.63    
    808      1    163     42      -23.14    
    809      1    180     42      -4.405    
    810      1    181     42      -6.396    
    811      1    182     42     -0.9970    
    812      1    185     42      -2.624    
    813      1    186     42      -16.95    
    814      1    187     42      -11.70    
    815      1    243     42      -2.434    
    816      1    244     42      -2.153    
    817      1    106     43      -2.463    
    818      1    107     43      -5.202    
    819      1    108     43      -3.305    
    820      1    109     43      -2.255    
    821      1    110     43      -2.892    
    822      1    111     43      -3.016    
    823      1    112     43      -2.979    
    824      1    113     43      -2.809    
    825      1    114     43      -1.556    
    826      1    115     43      -2.296    
    827      1    116     43      -4.461    
    828      1    117     43      -4.461    
    829      1    118     43      -4.461    
    830      1    119     43      -2.951    
    831      1    120     43      -1.778    
    832      1    121     43     -0.5261    
    833      1    130     43      -3.064    
    834      1    131     43      -6.192    
    835      1    132     43      -2.178    
    836      1    134     43      -4.703    
    837      1    135     43      -5.791    
    838      1    136     43      -6.384    
    839      1    137     43      -6.452    
    840      1    138     43      -5.491    
    841      1    139     43      -7.164    
    842      1    140     43      -12.13    
    843      1    141     43      -12.13    
    844      1    142     43      -12.13    
    845      1    143     43      -5.167    
    846      1    147     43      -10.94    
    847      1    148     43      -11.57    
    848      1    154     43      -11.21    
    849      1    155     43      -22.42    
    850      1    156     43      -29.26    
    851      1    157     43      -32.63    
    852      1    158     43      -13.67    
    853      1    159     43      -9.133    
    854      1    160     43     -0.2259    
    855      1    161     43      -1.105    
    856      1    162     43      -8.330    
    857      1    163     43      -12.73    
    858      1    164     43      -24.83    
    859      1    165     43      -14.10    
    860      1    180     43     -0.4670    
    861      1    181     43     -0.6385    
    862      1    182     43      -4.955    
    863      1    183     43      -5.862    
    864      1    184     43     -0.5321E-01
    865      1    185     43     -0.1625    
    866      1    186     43      -1.001    
    867      1    187     43     -0.6134    
    868      1    191     43      -10.03    
    869      1    192     43      -16.48    
    870      1    193     43      -3.842    
    871      1    108     44      -4.513    
    872      1    109     44      -7.335    
    873      1    110     44      -1.683    
    874      1    113     44     -0.3616    
    875      1    114     44      -4.461    
    876      1    115     44      -4.461    
    877      1    116     44      -4.461    
    878      1    117     44      -4.461    
    879      1    118     44      -4.461    
    880      1    119     44      -4.461    
    881      1    120     44      -4.461    
    882      1    121     44      -1.328    
    883      1    136     44      -11.46    
    884      1    137     44      -10.92    
    885      1    139     44      -3.096    
    886      1    140     44      -12.13    
    887      1    141     44      -12.13    
    888      1    142     44      -12.13    
    889      1    143     44      -5.266    
    890      1    154     44      -16.24    
    891      1    155     44      -32.63    
    892      1    156     44      -32.63    
    893      1    157     44      -32.63    
    894      1    158     44      -6.251    
    895      1    163     44      -8.953    
    896      1    164     44      -32.53    
    897      1    165     44      -18.43    
    898      1    182     44      -5.294    
    899      1    183     44      -6.396    
    900      1    184     44      -2.859    
    901      1    185     44      -2.539    
    902      1    191     44      -7.822    
    903      1    192     44      -12.81    
    904      1    193     44      -3.043    
    905      1    106     45      -1.746    
    906      1    107     45      -3.926    
    907      1    108     45      -3.600    
    908      1    109     45      -3.288    
    909      1    110     45     -0.7653    
    910      1    112     45      -2.357    
    911      1    113     45      -2.747    
    912      1    114     45      -4.461    
    913      1    115     45      -4.461    
    914      1    116     45      -4.461    
    915      1    117     45      -4.461    
    916      1    118     45      -4.461    
    917      1    119     45      -4.461    
    918      1    120     45      -4.461    
    919      1    121     45      -1.365    
    920      1    130     45      -4.294    
    921      1    131     45      -9.225    
    922      1    132     45      -3.489    
    923      1    134     45      -7.178    
    924      1    135     45      -9.290    
    925      1    136     45      -3.176    
    926      1    137     45      -3.262    
    927      1    138     45      -9.588    
    928      1    139     45      -7.895    
    929      1    140     45      -2.344    
    930      1    141     45      -2.244    
    931      1    142     45      -2.145    
    932      1    143     45     -0.9101    
    933      1    152     45      -9.889    
    934      1    153     45      -29.80    
    935      1    154     45      -16.55    
    936      1    155     45      -2.300    
    937      1    156     45      -18.97    
    938      1    157     45      -28.22    
    939      1    158     45      -5.632    
    940      1    161     45      -3.552    
    941      1    162     45      -32.19    
    942      1    163     45      -23.81    
    943      1    164     45     -0.2555E-02
    944      1    182     45      -5.243    
    945      1    183     45      -6.396    
    946      1    184     45      -16.69    
    947      1    185     45      -14.74    
    948      1    261     45     -0.5134E-01
    949      1    262     45     -0.1287    
    950      1    263     45     -0.5265E-01
    951      1    106     46      -3.253    
    952      1    107     46      -7.335    
    953      1    108     46      -2.944    
    954      1    112     46      -4.056    
    955      1    113     46      -4.461    
    956      1    114     46      -4.461    
    957      1    115     46      -4.461    
    958      1    116     46      -4.461    
    959      1    117     46      -4.461    
    960      1    118     46      -4.461    
    961      1    119     46      -4.461    
    962      1    120     46      -4.461    
    963      1    121     46      -1.402    
    964      1    130     46      -5.818    
    965      1    131     46      -12.59    
    966      1    132     46      -4.813    
    967      1    134     46      -9.358    
    968      1    135     46      -12.02    
    969      1    136     46     -0.8584    
    970      1    137     46      -1.013    
    971      1    138     46      -12.13    
    972      1    139     46      -9.361    
    973      1    140     46     -0.6037    
    974      1    141     46     -0.4166    
    975      1    143     46     -0.5224    
    976      1    144     46      -1.036    
    977      1    145     46     -0.3297    
    978      1    152     46      -9.060    
    979      1    153     46      -27.55    
    980      1    154     46      -16.75    
    981      1    155     46      -5.605    
    982      1    156     46      -16.72    
    983      1    157     46      -22.71    
    984      1    158     46      -4.675    
    985      1    161     46      -2.625    
    986      1    162     46      -25.17    
    987      1    163     46      -18.48    
    988      1    182     46      -5.191    
    989      1    183     46      -6.396    
    990      1    184     46      -9.956    
    991      1    185     46      -8.702    
    992      1    241     46      -2.835    
    993      1    242     46      -3.649    
    994      1    243     46     -0.2245    
    995      1    255     46     -0.1111    
    996      1    256     46      -4.115    
    997      1    257     46      -3.388    
    998      1    261     46      -2.127    
    999      1    262     46      -4.309    
   1000      1    263     46      -1.513    
   1001      1     97     47      -3.371    
   1002      1     98     47      -5.177    
   1003      1     99     47     -0.9756    
   1004      1    106     47     -0.7270    
   1005      1    107     47      -1.615    
   1006      1    108     47     -0.6390    
   1007      1    112     47     -0.7212    
   1008      1    113     47     -0.9695    
   1009      1    114     47      -4.461    
   1010      1    115     47      -4.461    
   1011      1    116     47      -4.461    
   1012      1    117     47      -4.461    
   1013      1    118     47      -4.461    
   1014      1    119     47      -4.461    
   1015      1    120     47      -4.461    
   1016      1    121     47      -1.438    
   1017      1    123     47      -3.386    
   1018      1    124     47      -4.100    
   1019      1    125     47     -0.4993E-01
   1020      1    130     47     -0.1707    
   1021      1    131     47     -0.2977    
   1022      1    132     47     -0.8754E-01
   1023      1    134     47     -0.1370E-02
   1024      1    137     47     -0.9145    
   1025      1    138     47      -12.13    
   1026      1    139     47      -12.13    
   1027      1    140     47      -12.13    
   1028      1    141     47      -7.448    
   1029      1    143     47      -6.814    
   1030      1    144     47      -12.59    
   1031      1    145     47      -3.818    
   1032      1    154     47      -15.44    
   1033      1    155     47      -32.63    
   1034      1    156     47      -12.12    
   1035      1    182     47      -5.139    
   1036      1    183     47      -6.396    
   1037      1    184     47     -0.2628    
   1038      1    241     47      -2.919    
   1039      1    242     47      -3.731    
   1040      1    243     47     -0.2532    
   1041      1    255     47     -0.6616E-01
   1042      1    256     47      -3.268    
   1043      1    257     47      -2.669    
   1044      1    261     47      -1.549    
   1045      1    262     47      -3.158    
   1046      1    263     47      -1.122    
   1047      1     97     48      -4.772    
   1048      1     98     48      -7.335    
   1049      1     99     48      -1.424    
   1050      1    108     48     -0.1452    
   1051      1    109     48     -0.2983    
   1052      1    110     48     -0.8954E-01
   1053      1    112     48     -0.2602    
   1054      1    113     48     -0.5114    
   1055      1    114     48      -4.098    
   1056      1    115     48      -4.144    
   1057      1    116     48      -4.461    
   1058      1    117     48      -4.461    
   1059      1    118     48      -4.461    
   1060      1    119     48      -4.461    
   1061      1    120     48      -4.461    
   1062      1    121     48      -1.475    
   1063      1    123     48      -3.679    
   1064      1    124     48      -4.461    
   1065      1    125     48     -0.8345    
   1066      1    126     48     -0.6915    
   1067      1    137     48     -0.8159    
   1068      1    138     48      -12.13    
   1069      1    139     48      -12.13    
   1070      1    140     48      -12.13    
   1071      1    141     48      -7.547    
   1072      1    143     48      -4.582    
   1073      1    144     48      -8.494    
   1074      1    145     48      -2.613    
   1075      1    149     48      -11.89    
   1076      1    150     48      -10.32    
   1077      1    152     48      -3.939    
   1078      1    153     48      -12.98    
   1079      1    154     48      -22.26    
   1080      1    155     48      -32.63    
   1081      1    156     48      -12.38    
   1082      1    158     48      -11.09    
   1083      1    159     48      -14.56    
   1084      1    160     48      -14.83    
   1085      1    161     48      -13.81    
   1086      1    182     48      -5.088    
   1087      1    183     48      -6.396    
   1088      1    184     48     -0.3142    
   1089      1    195     48      -10.81    
   1090      1    196     48      -11.91    
   1091      1     65     49     -0.5348E-02
   1092      1     66     49      -3.427    
   1093      1     67     49      -2.922    
   1094      1     97     49     -0.2652    
   1095      1     98     49     -0.3609    
   1096      1     99     49     -0.6449E-01
   1097      1    108     49      -4.211    
   1098      1    109     49      -7.335    
   1099      1    110     49      -1.985    
   1100      1    112     49      -3.947    
   1101      1    113     49      -4.282    
   1102      1    115     49     -0.8715    
   1103      1    116     49      -4.461    
   1104      1    117     49      -4.461    
   1105      1    118     49      -4.461    
   1106      1    119     49      -4.461    
   1107      1    120     49      -4.461    
   1108      1    121     49      -1.511    
   1109      1    123     49      -3.643    
   1110      1    124     49      -4.461    
   1111      1    125     49      -4.461    
   1112      1    126     49      -3.893    
   1113      1    137     49     -0.7177    
   1114      1    138     49      -12.13    
   1115      1    139     49      -12.13    
   1116      1    140     49      -12.13    
   1117      1    141     49      -7.645    
   1118      1    149     49      -32.34    
   1119      1    150     49      -27.85    
   1120      1    152     49      -9.849    
   1121      1    153     49      -32.63    
   1122      1    154     49      -32.63    
   1123      1    155     49      -32.63    
   1124      1    156     49      -12.64    
   1125      1    158     49      -25.06    
   1126      1    159     49      -32.63    
   1127      1    160     49      -32.63    
   1128      1    161     49      -30.07    
   1129      1    182     49      -5.037    
   1130      1    183     49      -6.396    
   1131      1    184     49     -0.3654    
   1132      1    195     49      -14.57    
   1133      1    196     49      -16.14    
   1134      1     66     50      -4.954    
   1135      1     67     50      -4.235    
   1136      1    108     50      -3.000    
   1137      1    109     50      -5.244    
   1138      1    110     50      -1.445    
   1139      1    112     50      -2.702    
   1140      1    113     50      -2.944    
   1141      1    115     50     -0.8352    
   1142      1    116     50      -4.461    
   1143      1    117     50      -4.461    
   1144      1    118     50      -4.461    
   1145      1    119     50      -4.461    
   1146      1    120     50      -4.461    
   1147      1    121     50      -1.547    
   1148      1    123     50      -2.171    
   1149      1    124     50      -2.647    
   1150      1    125     50      -4.390    
   1151      1    126     50      -3.930    
   1152      1    137     50     -0.6312    
   1153      1    138     50      -12.37    
   1154      1    139     50      -12.32    
   1155      1    140     50      -12.13    
   1156      1    141     50      -7.743    
   1157      1    143     50      -3.644    
   1158      1    144     50      -7.148    
   1159      1    145     50      -2.376    
   1160      1    149     50      -32.08    
   1161      1    150     50      -28.11    
   1162      1    152     50      -9.586    
   1163      1    153     50      -32.63    
   1164      1    154     50      -32.63    
   1165      1    155     50      -32.63    
   1166      1    156     50      -12.91    
   1167      1    158     50      -24.79    
   1168      1    159     50      -32.63    
   1169      1    160     50      -32.63    
   1170      1    161     50      -30.33    
   1171      1    165     50      -1.797    
   1172      1    166     50      -4.762    
   1173      1    167     50      -2.229    
   1174      1    182     50     -0.6346    
   1175      1    183     50     -0.7650    
   1176      1    184     50      -14.12    
   1177      1    185     50      -13.83    
   1178      1    187     50      -3.807    
   1179      1    188     50      -15.60    
   1180      1    189     50      -9.415    
   1181      1    195     50      -14.43    
   1182      1    196     50      -16.27    
   1183      1     66     51     -0.3227    
   1184      1     67     51     -0.2464    
   1185      1    115     51     -0.7992    
   1186      1    116     51      -4.461    
   1187      1    117     51      -4.461    
   1188      1    118     51      -4.461    
   1189      1    119     51      -4.461    
   1190      1    120     51      -4.461    
   1191      1    121     51      -1.583    
   1192      1    125     51      -4.263    
   1193      1    126     51      -3.966    
   1194      1    137     51     -0.5417    
   1195      1    138     51      -12.59    
   1196      1    139     51      -12.50    
   1197      1    140     51      -12.13    
   1198      1    141     51      -7.840    
   1199      1    143     51      -6.407    
   1200      1    144     51      -12.59    
   1201      1    145     51      -4.224    
   1202      1    149     51      -31.82    
   1203      1    150     51      -28.37    
   1204      1    152     51      -9.325    
   1205      1    153     51      -32.63    
   1206      1    154     51      -32.63    
   1207      1    155     51      -32.63    
   1208      1    156     51      -13.17    
   1209      1    158     51      -24.53    
   1210      1    159     51      -32.63    
   1211      1    160     51      -32.63    
   1212      1    161     51      -30.59    
   1213      1    165     51      -2.387    
   1214      1    166     51      -6.396    
   1215      1    167     51      -3.015    
   1216      1    184     51      -15.72    
   1217      1    185     51      -15.56    
   1218      1    187     51      -3.410    
   1219      1    188     51      -14.22    
   1220      1    189     51      -8.558    
   1221      1    195     51      -14.30    
   1222      1    196     51      -16.40    
   1223      1     90     52      -2.106    
   1224      1     91     52      -1.838    
   1225      1     95     52      -1.414    
   1226      1     96     52      -3.114    
   1227      1     97     52      -1.213    
   1228      1    115     52     -0.3239    
   1229      1    116     52      -1.847    
   1230      1    117     52      -1.811    
   1231      1    118     52      -1.775    
   1232      1    119     52      -3.051    
   1233      1    120     52      -4.461    
   1234      1    121     52      -1.619    
   1235      1    125     52      -4.228    
   1236      1    126     52      -4.001    
   1237      1    130     52      -3.639    
   1238      1    131     52      -8.893    
   1239      1    132     52      -3.874    
   1240      1    134     52      -6.661    
   1241      1    135     52      -9.297    
   1242      1    136     52      -9.398    
   1243      1    137     52      -9.614    
   1244      1    138     52      -12.59    
   1245      1    139     52      -10.72    
   1246      1    140     52      -2.684    
   1247      1    141     52      -5.122    
   1248      1    142     52      -10.00    
   1249      1    143     52      -11.34    
   1250      1    144     52      -12.59    
   1251      1    145     52      -4.325    
   1252      1    147     52      -22.11    
   1253      1    148     52      -27.50    
   1254      1    149     52      -32.48    
   1255      1    150     52      -28.64    
   1256      1    152     52      -1.124    
   1257      1    153     52      -3.828    
   1258      1    154     52      -16.17    
   1259      1    155     52      -32.63    
   1260      1    156     52      -13.43    
   1261      1    158     52      -1.864    
   1262      1    159     52      -2.266    
   1263      1    160     52      -8138.    
   1264      1    161     52      -8627.    
   1265      1    165     52     -0.4516E-01
   1266      1    166     52     -0.8747E-01
   1267      1    167     52     -0.2373E-01
   1268      1    184     52      -15.58    
   1269      1    185     52      -15.69    
   1270      1    195     52      -14.17    
   1271      1    196     52      -16.53    
   1272      1     90     53      -5.571    
   1273      1     91     53      -4.823    
   1274      1     95     53      -3.335    
   1275      1     96     53      -7.335    
   1276      1     97     53      -2.862    
   1277      1    119     53      -2.113    
   1278      1    120     53      -4.461    
   1279      1    121     53      -1.655    
   1280      1    125     53      -4.192    
   1281      1    126     53      -4.037    
   1282      1    130     53      -5.106    
   1283      1    131     53      -12.59    
   1284      1    132     53      -5.525    
   1285      1    134     53      -9.016    
   1286      1    135     53      -12.59    
   1287      1    136     53      -12.59    
   1288      1    137     53      -12.58    
   1289      1    138     53      -12.51    
   1290      1    139     53      -10.16    
   1291      1    141     53      -4.115    
   1292      1    142     53      -12.11    
   1293      1    143     53      -13.10    
   1294      1    144     53      -14.41    
   1295      1    145     53      -7.035    
   1296      1    146     53      -3.245    
   1297      1    147     53      -24.88    
   1298      1    148     53      -29.84    
   1299      1    149     53      -31.49    
   1300      1    150     53      -27.88    
   1301      1    154     53      -12.01    
   1302      1    155     53      -28.03    
   1303      1    156     53      -13.51    
   1304      1    157     53      -3.338    
   1305      1    158     53      -1983.    
   1306      1    159     53      -2818.    
   1307      1    160     53      -7368.    
   1308      1    161     53      -7457.    
   1309      1    167     53      -2.562    
   1310      1    168     53      -5.154    
   1311      1    169     53      -1.763    
   1312      1    184     53      -9.738    
   1313      1    185     53      -9.831    
   1314      1    187     53      -1.269    
   1315      1    188     53      -5.853    
   1316      1    189     53      -3.717    
   1317      1    195     53      -7.634    
   1318      1    196     53      -8.902    
   1319      1    197     53     -0.2066E-02
   1320      1    211     53     -0.5656    
   1321      1    212     53      -2.372    
   1322      1    213     53      -1.448    
   1323      1    224     53      -66.69    
   1324      1    225     53      -204.4    
   1325      1    226     53      -106.3    
   1326      1    232     53      -2.961    
   1327      1    233     53      -2.811    
   1328      1     88     54      -3.599    
   1329      1     89     54      -4.422    
   1330      1     90     54      -2.190    
   1331      1     91     54      -1.802    
   1332      1     95     54      -1.108    
   1333      1     96     54      -2.423    
   1334      1     97     54     -0.9420    
   1335      1    113     54     -0.4706E-02
   1336      1    114     54      -12.93    
   1337      1    115     54      -11.05    
   1338      1    119     54     -0.3008    
   1339      1    120     54     -0.6151    
   1340      1    121     54      -8.821    
   1341      1    122     54      -13.96    
   1342      1    123     54      -14.09    
   1343      1    124     54      -14.22    
   1344      1    125     54      -1.389    
   1345      1    126     54      -1.625    
   1346      1    127     54      -14.60    
   1347      1    128     54      -11.15    
   1348      1    130     54     -0.2809    
   1349      1    131     54     -0.6293    
   1350      1    132     54      -25.03    
   1351      1    133     54      -45.12    
   1352      1    134     54      -13.46    
   1353      1    135     54     -0.2278    
   1354      1    136     54     -0.1275    
   1355      1    137     54     -0.2985E-01
   1356      1    143     54      -22.66    
   1357      1    144     54      -46.71    
   1358      1    145     54      -46.71    
   1359      1    146     54      -46.71    
   1360      1    147     54      -9.537    
   1361      1    149     54      -20.25    
   1362      1    150     54      -19.02    
   1363      1    156     54      -12.19    
   1364      1    157     54      -21.29    
   1365      1    158     54     -0.1189E+05
   1366      1    159     54     -0.1632E+05
   1367      1    160     54      -1923.    
   1368      1    161     54      -20.46    
   1369      1    167     54      -10.67    
   1370      1    168     54      -21.13    
   1371      1    169     54      -7.179    
   1372      1    187     54      -3.118    
   1373      1    188     54      -14.57    
   1374      1    189     54      -9.186    
   1375      1    211     54     -0.9415    
   1376      1    212     54      -4.019    
   1377      1    213     54      -2.453    
   1378      1    224     54      -95.19    
   1379      1    225     54      -295.4    
   1380      1    226     54      -154.3    
   1381      1    232     54      -3.938    
   1382      1    233     54      -3.758    
   1383      1    241     54     -0.2351    
   1384      1    242     54     -0.3666    
   1385      1    243     54     -0.4983E-01
   1386      1    246     54     -0.1042    
   1387      1    247     54     -0.5931    
   1388      1    248     54     -0.4166    
   1389      1     88     55      -5.893    
   1390      1     89     55      -7.210    
   1391      1     90     55     -0.1976    
   1392      1    108     55     -0.4474E-01
   1393      1    109     55     -0.1276    
   1394      1    110     55     -0.5294E-01
   1395      1    114     55      -14.85    
   1396      1    115     55      -12.67    
   1397      1    119     55     -0.7241    
   1398      1    120     55      -1.687    
   1399      1    121     55      -9.320    
   1400      1    122     55      -13.96    
   1401      1    123     55      -15.43    
   1402      1    124     55      -15.90    
   1403      1    125     55      -3.351    
   1404      1    126     55      -3.322    
   1405      1    127     55      -13.33    
   1406      1    128     55      -10.11    
   1407      1    132     55      -20.32    
   1408      1    133     55      -36.93    
   1409      1    134     55      -18.07    
   1410      1    135     55      -10.52    
   1411      1    136     55      -10.89    
   1412      1    137     55      -11.26    
   1413      1    138     55      -11.63    
   1414      1    139     55      -12.00    
   1415      1    140     55      -12.36    
   1416      1    141     55      -8.633    
   1417      1    143     55      -22.29    
   1418      1    144     55      -46.71    
   1419      1    145     55      -37.71    
   1420      1    146     55      -32.12    
   1421      1    147     55      -12.09    
   1422      1    148     55      -6.983    
   1423      1    149     55      -20.50    
   1424      1    150     55      -19.19    
   1425      1    156     55      -12.02    
   1426      1    157     55      -21.29    
   1427      1    158     55      -6978.    
   1428      1    159     55      -9551.    
   1429      1    160     55      -1184.    
   1430      1    161     55      -20.90    
   1431      1    162     55      -9.334    
   1432      1    163     55      -7.740    
   1433      1    167     55      -10.50    
   1434      1    168     55      -21.13    
   1435      1    169     55      -7.346    
   1436      1    187     55      -1.101    
   1437      1    188     55      -5.207    
   1438      1    189     55      -3.252    
   1439      1    197     55      -10.20    
   1440      1    198     55      -9.049    
   1441      1    209     55     -0.2289    
   1442      1    210     55      -3.272    
   1443      1    211     55      -2.716    
   1444      1    212     55     -0.6838    
   1445      1    213     55     -0.4049    
   1446      1    222     55     -0.6030    
   1447      1    223     55      -3.819    
   1448      1    224     55      -10.83    
   1449      1    225     55      -24.31    
   1450      1    226     55      -13.75    
   1451      1    227     55      -3.949    
   1452      1    228     55      -1.489    
   1453      1    230     55      -3.161    
   1454      1    231     55      -4.078    
   1455      1    232     55      -4.168    
   1456      1    233     55      -3.790    
   1457      1    241     55      -4.184    
   1458      1    242     55      -5.865    
   1459      1    243     55     -0.7694    
   1460      1    246     55      -1.054    
   1461      1    247     55      -5.865    
   1462      1    248     55      -3.899    
   1463      1     88     56     -0.8705    
   1464      1     89     56      -1.019    
   1465      1     90     56     -0.3162E-01
   1466      1     99     56      -4.804    
   1467      1    100     56      -6.532    
   1468      1    101     56     -0.6807    
   1469      1    108     56      -3.573    
   1470      1    109     56      -6.900    
   1471      1    110     56      -2.256    
   1472      1    119     56      -7.151    
   1473      1    120     56      -15.90    
   1474      1    121     56      -6.279    
   1475      1    123     56      -12.09    
   1476      1    124     56      -15.90    
   1477      1    125     56      -15.90    
   1478      1    126     56      -14.77    
   1479      1    134     56      -32.34    
   1480      1    135     56      -46.71    
   1481      1    136     56      -46.71    
   1482      1    137     56      -46.71    
   1483      1    138     56      -46.71    
   1484      1    139     56      -46.71    
   1485      1    140     56      -46.71    
   1486      1    141     56      -32.04    
   1487      1    143     56      -21.92    
   1488      1    144     56      -46.71    
   1489      1    145     56      -17.53    
   1490      1    147     56      -16.61    
   1491      1    148     56      -21.29    
   1492      1    149     56      -21.29    
   1493      1    150     56      -19.36    
   1494      1    156     56      -11.85    
   1495      1    157     56      -21.29    
   1496      1    158     56      -6.127    
   1497      1    160     56      -18.47    
   1498      1    161     56      -21.29    
   1499      1    162     56      -21.29    
   1500      1    163     56      -17.49    
   1501      1    167     56      -10.33    
   1502      1    168     56      -21.13    
   1503      1    169     56      -7.511    
   1504      1    197     56      -14.21    
   1505      1    198     56      -12.66    
   1506      1    209     56     -0.2544    
   1507      1    210     56      -4.019    
   1508      1    211     56      -3.140    
   1509      1    222     56     -0.6312    
   1510      1    223     56      -4.172    
   1511      1    224     56      -4.172    
   1512      1    225     56      -4.172    
   1513      1    226     56      -3.828    
   1514      1    227     56      -3.399    
   1515      1    228     56      -1.289    
   1516      1    230     56      -3.225    
   1517      1    231     56      -4.172    
   1518      1    232     56      -3.307    
   1519      1    233     56      -2.935    
   1520      1    241     56      -4.139    
   1521      1    242     56      -5.865    
   1522      1    243     56     -0.8145    
   1523      1    246     56      -1.009    
   1524      1    247     56      -5.865    
   1525      1    248     56      -4.610    
   1526      1    249     56      -2.079    
   1527      1    250     56      -1.098    
   1528      1     99     57      -4.129    
   1529      1    100     57      -5.578    
   1530      1    101     57     -0.6142    
   1531      1    104     57     -0.3065    
   1532      1    105     57      -1.596    
   1533      1    106     57      -1.064    
   1534      1    108     57      -2.619    
   1535      1    109     57      -5.086    
   1536      1    110     57      -1.685    
   1537      1    119     57      -4.620    
   1538      1    120     57      -10.33    
   1539      1    121     57      -4.113    
   1540      1    123     57      -11.96    
   1541      1    124     57      -15.90    
   1542      1    125     57      -10.29    
   1543      1    126     57      -8.964    
   1544      1    134     57      -17.26    
   1545      1    135     57      -24.83    
   1546      1    136     57      -43.13    
   1547      1    137     57      -46.71    
   1548      1    138     57      -46.71    
   1549      1    139     57      -43.21    
   1550      1    140     57      -22.99    
   1551      1    141     57      -15.69    
   1552      1    143     57      -10.10    
   1553      1    144     57      -21.52    
   1554      1    145     57      -8.105    
   1555      1    147     57      -16.44    
   1556      1    148     57      -21.29    
   1557      1    149     57      -21.29    
   1558      1    150     57      -19.52    
   1559      1    154     57      -5.177    
   1560      1    155     57      -13.32    
   1561      1    156     57      -17.77    
   1562      1    157     57      -21.29    
   1563      1    158     57      -6.294    
   1564      1    160     57      -18.30    
   1565      1    161     57      -21.09    
   1566      1    162     57      -6.804    
   1567      1    163     57      -5.500    
   1568      1    167     57      -2.848    
   1569      1    168     57      -5.760    
   1570      1    169     57      -2.036    
   1571      1    173     57      -15.33    
   1572      1    174     57      -14.68    
   1573      1    180     57      -9.878    
   1574      1    181     57      -17.51    
   1575      1    182     57      -17.68    
   1576      1    183     57      -17.84    
   1577      1    184     57      -2.166    
   1578      1    189     57      -4.499    
   1579      1    190     57      -13.09    
   1580      1    191     57      -6.576    
   1581      1    193     57      -8.833    
   1582      1    194     57      -13.55    
   1583      1    195     57      -2.560    
   1584      1    197     57      -14.10    
   1585      1    198     57      -12.78    
   1586      1    209     57     -0.2233    
   1587      1    210     57      -4.019    
   1588      1    211     57      -3.171    
   1589      1    222     57     -0.5990    
   1590      1    223     57      -4.172    
   1591      1    224     57      -4.172    
   1592      1    225     57      -4.172    
   1593      1    226     57      -2.276    
   1594      1    230     57      -3.193    
   1595      1    231     57      -4.172    
   1596      1    232     57     -0.3306    
   1597      1    241     57      -4.094    
   1598      1    242     57      -5.865    
   1599      1    243     57     -0.8595    
   1600      1    246     57     -0.9640    
   1601      1    247     57      -5.865    
   1602      1    248     57      -5.865    
   1603      1    249     57      -5.865    
   1604      1    250     57      -3.078    
   1605      1     73     58      -3.885    
   1606      1     74     58      -7.098    
   1607      1     75     58      -2.097    
   1608      1    104     58      -1.320    
   1609      1    105     58      -6.900    
   1610      1    106     58      -4.509    
   1611      1    123     58      -11.84    
   1612      1    124     58      -15.90    
   1613      1    125     58      -1.590    
   1614      1    136     58      -38.86    
   1615      1    137     58      -46.71    
[...]
  81044      1    108    258       0.000    
  81045      1    108    259       0.000    
  81046      1    108    260       0.000    
  81047      1    108    261       0.000    
  81048      1    109    241       0.000    
  81049      1    109    242       0.000    
  81050      1    109    243       0.000    
  81051      1    109    245       0.000    
  81052      1    109    247       0.000    
  81053      1    109    250       0.000    
  81054      1    109    252       0.000    
  81055      1    109    255       0.000    
  81056      1    109    258       0.000    
  81057      1    109    259       0.000    
  81058      1    109    260       0.000    
  81059      1    109    294       0.000    
  81060      1    109    339       0.000    
  81061      1    110    244       0.000    
  81062      1    110    245       0.000    
  81063      1    110    246       0.000    
  81064      1    110    249       0.000    
  81065      1    110    252       0.000    
  81066      1    110    255       0.000    
  81067      1    110    257       0.000    
  81068      1    110    295       0.000    
  81069      1    110    332       0.000    
  81070      1    110    333       0.000    
  81071      1    110    338       0.000    
  81072      1    111    246       0.000    
  81073      1    111    249       0.000    
  81074      1    111    252       0.000    
  81075      1    111    254       0.000    
  81076      1    111    256       0.000    
  81077      1    111    271       0.000    
  81078      1    111    285       0.000    
  81079      1    111    286       0.000    
  81080      1    111    295       0.000    
  81081      1    111    332       0.000    
  81082      1    111    338       0.000    
  81083      1    112    247       0.000    
  81084      1    112    249       0.000    
  81085      1    112    251       0.000    
  81086      1    112    252       0.000    
  81087      1    112    253       0.000    
  81088      1    112    254       0.000    
  81089      1    112    255       0.000    
  81090      1    112    271       0.000    
  81091      1    112    284       0.000    
  81092      1    112    285       0.000    
  81093      1    112    295       0.000    
  81094      1    112    333       0.000    
  81095      1    113    248       0.000    
  81096      1    113    249       0.000    
  81097      1    113    250       0.000    
  81098      1    113    255       0.000    
  81099      1    113    270       0.000    
  81100      1    113    277       0.000    
  81101      1    113    278       0.000    
  81102      1    113    283       0.000    
  81103      1    113    295       0.000    
  81104      1    113    298       0.000    
  81105      1    113    299       0.000    
  81106      1    113    322       0.000    
  81107      1    113    332       0.000    
  81108      1    114    254       0.000    
  81109      1    114    262       0.000    
  81110      1    114    263       0.000    
  81111      1    114    269       0.000    
  81112      1    114    270       0.000    
  81113      1    114    276       0.000    
  81114      1    114    283       0.000    
  81115      1    114    291       0.000    
  81116      1    114    296       0.000    
  81117      1    114    297       0.000    
  81118      1    114    298       0.000    
  81119      1    114    323       0.000    
  81120      1    114    333       0.000    
  81121      1    115    254       0.000    
  81122      1    115    261       0.000    
  81123      1    115    270       0.000    
  81124      1    115    275       0.000    
  81125      1    115    276       0.000    
  81126      1    115    283       0.000    
  81127      1    115    291       0.000    
  81128      1    115    297       0.000    
  81129      1    115    298       0.000    
  81130      1    115    304       0.000    
  81131      1    115    306       0.000    
  81132      1    115    323       0.000    
  81133      1    115    324       0.000    
  81134      1    115    333       0.000    
  81135      1    116    254       0.000    
  81136      1    116    255       0.000    
  81137      1    116    260       0.000    
  81138      1    116    261       0.000    
  81139      1    116    270       0.000    
  81140      1    116    271       0.000    
  81141      1    116    272       0.000    
  81142      1    116    273       0.000    
  81143      1    116    274       0.000    
  81144      1    116    283       0.000    
  81145      1    116    291       0.000    
  81146      1    116    298       0.000    
  81147      1    116    299       0.000    
  81148      1    116    304       0.000    
  81149      1    116    306       0.000    
  81150      1    116    325       0.000    
  81151      1    116    326       0.000    
  81152      1    117    255       0.000    
  81153      1    117    256       0.000    
  81154      1    117    257       0.000    
  81155      1    117    258       0.000    
  81156      1    117    259       0.000    
  81157      1    117    267       0.000    
  81158      1    117    268       0.000    
  81159      1    117    269       0.000    
  81160      1    117    282       0.000    
  81161      1    117    291       0.000    
  81162      1    117    299       0.000    
  81163      1    117    305       0.000    
  81164      1    117    306       0.000    
  81165      1    117    312       0.000    
  81166      1    117    313       0.000    
  81167      1    117    327       0.000    
  81168      1    118    256       0.000    
  81169      1    118    258       0.000    
  81170      1    118    267       0.000    
  81171      1    118    281       0.000    
  81172      1    118    282       0.000    
  81173      1    118    291       0.000    
  81174      1    118    298       0.000    
  81175      1    118    305       0.000    
  81176      1    118    312       0.000    
  81177      1    118    323       0.000    
  81178      1    118    327       0.000    
  81179      1    119    256       0.000    
  81180      1    119    257       0.000    
  81181      1    119    267       0.000    
  81182      1    119    281       0.000    
  81183      1    119    291       0.000    
  81184      1    119    298       0.000    
  81185      1    119    305       0.000    
  81186      1    119    312       0.000    
  81187      1    119    324       0.000    
  81188      1    119    327       0.000    
  81189      1    120    257       0.000    
  81190      1    120    260       0.000    
  81191      1    120    261       0.000    
  81192      1    120    262       0.000    
  81193      1    120    266       0.000    
  81194      1    120    267       0.000    
  81195      1    120    280       0.000    
  81196      1    120    291       0.000    
  81197      1    120    298       0.000    
  81198      1    120    300       0.000    
  81199      1    120    306       0.000    
  81200      1    120    312       0.000    
  81201      1    120    325       0.000    
  81202      1    120    326       0.000    
  81203      1    120    327       0.000    
  81204      1    121    257       0.000    
  81205      1    121    258       0.000    
  81206      1    121    259       0.000    
  81207      1    121    263       0.000    
  81208      1    121    264       0.000    
  81209      1    121    266       0.000    
  81210      1    121    270       0.000    
  81211      1    121    280       0.000    
  81212      1    121    291       0.000    
  81213      1    121    298       0.000    
  81214      1    121    299       0.000    
  81215      1    121    300       0.000    
  81216      1    121    305       0.000    
  81217      1    121    311       0.000    
  81218      1    121    312       0.000    
  81219      1    121    326       0.000    
  81220      1    121    327       0.000    
  81221      1    122    263       0.000    
  81222      1    122    265       0.000    
  81223      1    122    271       0.000    
  81224      1    122    272       0.000    
  81225      1    122    278       0.000    
  81226      1    122    279       0.000    
  81227      1    122    291       0.000    
  81228      1    122    298       0.000    
  81229      1    122    305       0.000    
  81230      1    122    311       0.000    
  81231      1    123    263       0.000    
  81232      1    123    273       0.000    
  81233      1    123    278       0.000    
  81234      1    123    291       0.000    
  81235      1    123    295       0.000    
  81236      1    123    299       0.000    
  81237      1    123    305       0.000    
  81238      1    123    310       0.000    
  81239      1    123    326       0.000    
  81240      1    124    264       0.000    
  81241      1    124    272       0.000    
  81242      1    124    274       0.000    
  81243      1    124    278       0.000    
  81244      1    124    291       0.000    
  81245      1    124    295       0.000    
  81246      1    124    300       0.000    
  81247      1    124    304       0.000    
  81248      1    124    310       0.000    
  81249      1    124    326       0.000    
  81250      1    125    265       0.000    
  81251      1    125    267       0.000    
  81252      1    125    268       0.000    
  81253      1    125    271       0.000    
  81254      1    125    274       0.000    
  81255      1    125    277       0.000    
  81256      1    125    291       0.000    
  81257      1    125    295       0.000    
  81258      1    125    300       0.000    
  81259      1    125    301       0.000    
  81260      1    125    302       0.000    
  81261      1    125    303       0.000    
  81262      1    125    304       0.000    
  81263      1    125    310       0.000    
  81264      1    125    325       0.000    
  81265      1    126    266       0.000    
  81266      1    126    267       0.000    
  81267      1    126    271       0.000    
  81268      1    126    274       0.000    
  81269      1    126    277       0.000    
  81270      1    126    291       0.000    
  81271      1    126    295       0.000    
  81272      1    126    300       0.000    
  81273      1    126    310       0.000    
  81274      1    126    312       0.000    
  81275      1    127    267       0.000    
  81276      1    127    271       0.000    
  81277      1    127    273       0.000    
  81278      1    127    277       0.000    
  81279      1    127    286       0.000    
  81280      1    127    290       0.000    
  81281      1    127    294       0.000    
  81282      1    127    299       0.000    
  81283      1    127    310       0.000    
  81284      1    127    311       0.000    
  81285      1    127    324       0.000    
  81286      1    128    267       0.000    
  81287      1    128    270       0.000    
  81288      1    128    271       0.000    
  81289      1    128    273       0.000    
  81290      1    128    276       0.000    
  81291      1    128    286       0.000    
  81292      1    128    287       0.000    
  81293      1    128    288       0.000    
  81294      1    128    290       0.000    
  81295      1    128    294       0.000    
  81296      1    128    299       0.000    
  81297      1    128    303       0.000    
  81298      1    128    309       0.000    
  81299      1    128    310       0.000    
  81300      1    128    311       0.000    
  81301      1    128    323       0.000    
  81302      1    129    268       0.000    
  81303      1    129    269       0.000    
  81304      1    129    271       0.000    
  81305      1    129    272       0.000    
  81306      1    129    273       0.000    
  81307      1    129    276       0.000    
  81308      1    129    277       0.000    
  81309      1    129    289       0.000    
  81310      1    129    290       0.000    
  81311      1    129    293       0.000    
  81312      1    129    299       0.000    
  81313      1    129    300       0.000    
  81314      1    129    301       0.000    
  81315      1    129    302       0.000    
  81316      1    129    305       0.000    
  81317      1    129    307       0.000    
  81318      1    129    308       0.000    
  81319      1    129    311       0.000    
  81320      1    130    273       0.000    
  81321      1    130    274       0.000    
  81322      1    130    276       0.000    
  81323      1    130    277       0.000    
  81324      1    130    288       0.000    
  81325      1    130    289       0.000    
  81326      1    130    290       0.000    
  81327      1    130    291       0.000    
  81328      1    130    292       0.000    
  81329      1    130    299       0.000    
  81330      1    130    303       0.000    
  81331      1    130    304       0.000    
  81332      1    130    305       0.000    
  81333      1    130    306       0.000    
  81334      1    130    310       0.000    
  81335      1    131    274       0.000    
  81336      1    131    277       0.000    
  81337      1    131    287       0.000    
  81338      1    131    289       0.000    
  81339      1    131    292       0.000    
  81340      1    131    293       0.000    
  81341      1    131    294       0.000    
  81342      1    131    299       0.000    
  81343      1    131    303       0.000    
  81344      1    131    310       0.000    
  81345      1    132    274       0.000    
  81346      1    132    276       0.000    
  81347      1    132    283       0.000    
  81348      1    132    288       0.000    
  81349      1    132    295       0.000    
  81350      1    132    296       0.000    
  81351      1    132    297       0.000    
  81352      1    132    299       0.000    
  81353      1    132    301       0.000    
  81354      1    132    302       0.000    
  81355      1    132    310       0.000    
  81356      1    133    275       0.000    
  81357      1    133    276       0.000    
  81358      1    133    283       0.000    
  81359      1    133    288       0.000    
  81360      1    133    297       0.000    
  81361      1    133    298       0.000    
  81362      1    133    300       0.000    
  81363      1    133    301       0.000    
  81364      1    133    304       0.000    
  81365      1    133    310       0.000    
  81366      1    133    317       0.000    
  81367      1    134    275       0.000    
  81368      1    134    276       0.000    
  81369      1    134    284       0.000    
  81370      1    134    289       0.000    
  81371      1    134    299       0.000    
  81372      1    134    300       0.000    
  81373      1    134    304       0.000    
  81374      1    134    310       0.000    
  81375      1    134    315       0.000    
  81376      1    134    316       0.000    
  81377      1    135    277       0.000    
  81378      1    135    278       0.000    
  81379      1    135    284       0.000    
  81380      1    135    288       0.000    
  81381      1    135    301       0.000    
  81382      1    135    302       0.000    
  81383      1    135    303       0.000    
  81384      1    135    305       0.000    
  81385      1    135    310       0.000    
  81386      1    135    313       0.000    
  81387      1    135    314       0.000    
  81388      1    136    279       0.000    
  81389      1    136    282       0.000    
  81390      1    136    285       0.000    
  81391      1    136    286       0.000    
  81392      1    136    287       0.000    
  81393      1    136    301       0.000    
  81394      1    136    304       0.000    
  81395      1    136    308       0.000    
  81396      1    136    309       0.000    
  81397      1    136    310       0.000    
  81398      1    136    312       0.000    
  81399      1    137    280       0.000    
  81400      1    137    282       0.000    
  81401      1    137    285       0.000    
  81402      1    137    302       0.000    
  81403      1    137    303       0.000    
  81404      1    137    306       0.000    
  81405      1    137    307       0.000    
  81406      1    137    309       0.000    
  81407      1    137    311       0.000    
  81408      1    138    281       0.000    
  81409      1    138    282       0.000    
  81410      1    138    284       0.000    
  81411      1    138    302       0.000    
  81412      1    138    307       0.000    
  81413      1    139    282       0.000    
  81414      1    139    283       0.000    
  81415      1    139    284       0.000    
  81416      1    139    302       0.000    
  81417      1    139    303       0.000    
  81418      1    139    305       0.000    
  81419      1    139    306       0.000    
  81420      1    140    302       0.000    
  81421      1    140    303       0.000    
  81422      1    140    304       0.000    
  81423      1    140    305       0.000    
  81424      1    140    306       0.000    
  81425      1    140    307       0.000    
  81426      1    141    302       0.000    

  81426 WELLS

 331676 DRAINS



                           RECHARGE
 READING ON UNIT   19 WITH FORMAT: (586E15.6)          
 
 SOLVING FOR HEAD 

    ------------------------------------------------
       NWT REQUIRED            6 OUTER ITERATIONS 
       AND A TOTAL OF         14 INNER ITERATIONS.
    ------------------------------------------------

 OUTPUT CONTROL FOR STRESS PERIOD    1   TIME STEP    1
    SAVE HEAD FOR ALL LAYERS

 HEAD WILL BE SAVED ON UNIT   51 AT END OF TIME STEP    1, STRESS PERIOD    1
1
  VOLUMETRIC BUDGET FOR ENTIRE MODEL AT END OF TIME STEP    1, STRESS PERIOD   1
  ------------------------------------------------------------------------------

     CUMULATIVE VOLUMES      L**3       RATES FOR THIS TIME STEP      L**3/T
     ------------------                 ------------------------

           IN:                                      IN:
           ---                                      ---
             STORAGE =    78561696.0000               STORAGE =    78561696.0000
       CONSTANT HEAD =           0.0000         CONSTANT HEAD =           0.0000
               WELLS =           0.0000                 WELLS =           0.0000
              DRAINS =           0.0000                DRAINS =           0.0000
            RECHARGE =    24246330.0000              RECHARGE =    24246330.0000

            TOTAL IN =   102808024.0000              TOTAL IN =   102808024.0000

          OUT:                                     OUT:
          ----                                     ----
             STORAGE =    24160346.0000               STORAGE =    24160346.0000
       CONSTANT HEAD =           0.0000         CONSTANT HEAD =           0.0000
               WELLS =    48816584.0000                 WELLS =    48816584.0000
              DRAINS =    29836320.0000                DRAINS =    29836320.0000
            RECHARGE =           0.0000              RECHARGE =           0.0000

           TOTAL OUT =   102813248.0000             TOTAL OUT =   102813248.0000

            IN - OUT =       -5224.0000              IN - OUT =       -5224.0000

 PERCENT DISCREPANCY =          -0.01     PERCENT DISCREPANCY =          -0.01






         TIME SUMMARY AT END OF TIME STEP    1 IN STRESS PERIOD    1
                    SECONDS     MINUTES      HOURS       DAYS        YEARS
                    -----------------------------------------------------------
   TIME STEP LENGTH  86400.      1440.0      24.000      1.0000     2.73785E-03
 STRESS PERIOD TIME  86400.      1440.0      24.000      1.0000     2.73785E-03
         TOTAL TIME  86400.      1440.0      24.000      1.0000     2.73785E-03
1

 Run end date and time (yyyy/mm/dd hh:mm:ss): 2020/12/10 13:05:09
 Elapsed run time:  2.980 Seconds

