                                  MODFLOW-NWT-SWR1 
      U.S. GEOLOGICAL SURVEY MODULAR FINITE-DIFFERENCE GROUNDWATER-FLOW MODEL
                             VERSION 1.1.4 4/01/2018
                    BASED ON MODFLOW-2005 VERSION 1.12.00 02/03/2017

 LIST FILE: C:/GitHub/FUSE/Modflow/output/Bhima_transient.list
                         UNIT    2

 OPENING C:/GitHub/FUSE/Modflow/output/Bhima_transient.dis
 FILE TYPE:DIS   UNIT   11   STATUS:OLD    
 FORMAT:FORMATTED              ACCESS:SEQUENTIAL          

 OPENING C:/GitHub/FUSE/Modflow/output/Bhima_transient.bas
 FILE TYPE:BAS6   UNIT   13   STATUS:OLD    
 FORMAT:FORMATTED              ACCESS:SEQUENTIAL          

 OPENING C:/GitHub/FUSE/Modflow/output/Bhima_transient.upw
 FILE TYPE:UPW   UNIT   31   STATUS:OLD    
 FORMAT:FORMATTED              ACCESS:SEQUENTIAL          

 OPENING C:/GitHub/FUSE/Modflow/output/Bhima_transient.nwt
 FILE TYPE:NWT   UNIT   32   STATUS:OLD    
 FORMAT:FORMATTED              ACCESS:SEQUENTIAL          

 OPENING C:/GitHub/FUSE/Modflow/output/Bhima_transient.drn
 FILE TYPE:DRN   UNIT   21   STATUS:OLD    
 FORMAT:FORMATTED              ACCESS:SEQUENTIAL          

 OPENING C:/GitHub/FUSE/Modflow/output/Bhima_transient.wel
 FILE TYPE:WEL   UNIT   20   STATUS:OLD    
 FORMAT:FORMATTED              ACCESS:SEQUENTIAL          

 OPENING C:/GitHub/FUSE/Modflow/output/Bhima_transient.rch
 FILE TYPE:RCH   UNIT   19   STATUS:OLD    
 FORMAT:FORMATTED              ACCESS:SEQUENTIAL          

 OPENING C:/GitHub/FUSE/Modflow/output/Bhima_transient.oc
 FILE TYPE:OC   UNIT   14   STATUS:OLD    
 FORMAT:FORMATTED              ACCESS:SEQUENTIAL          

 OPENING C:/GitHub/FUSE/Modflow/output/Bhima_transient.hds
 FILE TYPE:DATA(BINARY)   UNIT   51   STATUS:REPLACE
 FORMAT:BINARY                 ACCESS:SEQUENTIAL          

 OPENING C:/GitHub/FUSE/Modflow/output/Bhima_transient.out
 FILE TYPE:DATA   UNIT   50   STATUS:UNKNOWN
 FORMAT:FORMATTED              ACCESS:SEQUENTIAL          

 BAS -- BASIC PACKAGE, VERSION 1.1.4, 4/01/2018 INPUT READ FROM UNIT   13
 
 MODFLOW was compiled using mixed precision
 Precision of REAL variables:           6
 Precision of DOUBLE PRECISION variables:          15

 DISCRETIZATION INPUT DATA READ FROM UNIT   11
 # DIS package for  MODFLOW-NWT, generated by Flopy.
    1 LAYERS       158 ROWS       342 COLUMNS
    1 STRESS PERIOD(S) IN SIMULATION
 MODEL TIME UNIT IS DAYS
 MODEL LENGTH UNIT IS METERS
  Confining bed flag for each layer:
   0

                     DELR =   500.000    

                     DELC =   500.000    



           TOP ELEVATION OF LAYER 1
 READING ON UNIT   11 WITH FORMAT: (342E15.6)          



             MODEL LAYER BOTTOM EL. FOR LAYER   1
 READING ON UNIT   11 WITH FORMAT: (342E15.6)          


 STRESS PERIOD     LENGTH       TIME STEPS     MULTIPLIER FOR DELT    SS FLAG
 ----------------------------------------------------------------------------
        1         1.000000          1                    1.000         TR

 TRANSIENT SIMULATION



 
 # BAS6 package for  MODFLOW-NWT, generated by Flopy.                            
 THE FREE FORMAT OPTION HAS BEEN SELECTED



                     BOUNDARY ARRAY FOR LAYER   1
 READING ON UNIT   13 WITH FORMAT: (342I10)            

 AQUIFER HEAD WILL BE SET TO  -999.99     AT ALL NO-FLOW NODES (IBOUND=0).



                       INITIAL HEAD FOR LAYER   1
 READING ON UNIT   13 WITH FORMAT: (342E15.6)          
 # OC package for  MODFLOW-NWT, generated by Flopy.

 OUTPUT CONTROL IS SPECIFIED ONLY AT TIME STEPS FOR WHICH OUTPUT IS DESIRED
 COMPACT CELL-BY-CELL BUDGET FILES WILL BE WRITTEN
 AUXILIARY DATA WILL BE SAVED IN CELL-BY-CELL BUDGET FILES
 HEAD PRINT FORMAT CODE IS   0    DRAWDOWN PRINT FORMAT CODE IS   0
 HEADS WILL BE SAVED ON UNIT   51    DRAWDOWNS WILL BE SAVED ON UNIT    0
 # NWT package for  MODFLOW-NWT, generated by Flopy.

 NWT1 -- Newton Solver, VERSION 1.1.4, 4/01/2018
         INPUT READ FROM UNIT 32

 SIMPLE OPTION:
 DEFAULT SOLVER INPUT VALUES REFLECT NEARLY LINEAR MODEL
 ***GMRES linear solver will be used***
 
   CONVERGENCE CRITERION OF   0.100000E-01 FOR HEAD SOLUTION
   AND A TOLERANCE OF   0.500000E+03 FOR FLOW SOLUTION AND 
   A MAXIMUM OF   100 OUTER ITERATIONS. 


   D-B-D REDUCTION FACTOR OF    0.970000E+00 AND 
   A D-B-D INCREASE FACTOR OF    0.100000E-03 AND 
   A D-B-D RELAXATION OF    0.000000E+00 AND 
   A MOMENTUM FACTOR OF    0.000000E+00 .


 ***BACKTRACKING IS INACTIVE***
 GMRES -- LINEAR SOLUTION BY GMRES PACKAGE 
     adapted for HYDROTHERM by Kipp and others (2008)
     using software originally developed by Saad (1990) 32
     using algorithms described in Saad (2003)

 UPW1 -- UPSTREAM WEIGHTING FLOW PACKAGE, VERSION 1.1.4, 4/01/2018
         INPUT READ FROM UNIT 31

 # UPW package for  MODFLOW-NWT, generated by Flopy.
 No named parameters

   LAYER FLAGS:
 LAYER       LAYTYP          LAYAVG    CHANI           LAYVKA           LAYWET
 ---------------------------------------------------------------------------
    1             1             0     1.000E+00             1             0

   INTERPRETATION OF LAYER FLAGS:
                        INTERBLOCK     HORIZONTAL    DATA IN
         LAYER TYPE   TRANSMISSIVITY   ANISOTROPY   ARRAY VKA   WETTABILITY
 LAYER   (LAYTYP)        (LAYAVG)      (CHANI)     (LAYVKA)       (LAYWET)
 ---------------------------------------------------------------------------
    1   CONVERTIBLE      HARMONIC     1.000E+00    ANISOTROPY  NON-WETTABLE



              HYD. COND. ALONG ROWS FOR LAYER   1
 READING ON UNIT   31 WITH FORMAT: (342E15.6)          

  HORIZ. TO VERTICAL ANI. =   5.00000     FOR LAYER   1



                   SPECIFIC STORAGE FOR LAYER   1
 READING ON UNIT   31 WITH FORMAT: (342E15.6)          



                     SPECIFIC YIELD FOR LAYER   1
 READING ON UNIT   31 WITH FORMAT: (342E15.6)          

 WEL -- WELL PACKAGE FOR NWT VERSION 1.1.4,  4/01/2018 INPUT READ FROM UNIT   20
 # WEL package for  MODFLOW-NWT, generated by Flopy.
 No named parameters
 MAXIMUM OF   9509 ACTIVE WELLS AT ONE TIME
 No named parameters
 
 NEGATIVE PUMPING RATES WILL BE REDUCED IF HEAD 
 FALLS WITHIN THE INTERVAL PHIRAMP TIMES THE CELL 
 THICKNESS. THE VALUE SPECIFIED FOR PHIRAMP IS  0.10000E+00
 WELLS WITH REDUCED PUMPING WILL BE REPORTED TO FILE UNIT NUMBER   50


     0 Well parameters

 DRN -- DRAIN PACKAGE, VERSION 7, 5/2/2005 INPUT READ FROM UNIT   21
 # DRN package for  MODFLOW-NWT, generated by Flopy.
 No named parameters
 MAXIMUM OF  54036 ACTIVE DRAINS AT ONE TIME
 LISTS OF DRAIN CELLS WILL NOT BE PRINTED


     0 Drain parameters

 RCH -- RECHARGE PACKAGE, VERSION 7, 5/2/2005 INPUT READ FROM UNIT   19
 # RCH package for  MODFLOW-NWT, generated by Flopy.
 No named parameters
 OPTION 3 -- RECHARGE TO HIGHEST ACTIVE NODE IN EACH VERTICAL COLUMN


     0 Recharge parameters
1
                            STRESS PERIOD NO.    1, LENGTH =   1.000000    
                            -----------------------------------------------

                              NUMBER OF TIME STEPS =     1

                               MULTIPLIER FOR DELT =     1.000

                            INITIAL TIME STEP SIZE =   1.000000    

 WELL NO.  LAYER   ROW   COL   STRESS RATE         
 --------------------------------------------------
      1      1     43     11      -5.195    
      2      1     44     11      -5.195    
      3      1     45     11      -12.47    
      4      1     46     11      -12.47    
      5      1     44     12      -5.195    
      6      1     45     12      -12.47    
      7      1     46     12      -12.47    
      8      1     44     13      -60.08    
      9      1     45     13      -40.55    
     10      1     46     13      -40.55    
     11      1     44     14      -60.08    
     12      1     45     14      -40.55    
     13      1     46     14      -40.55    
     14      1     44     15      -195.3    
     15      1     51     15      -25.01    
     16      1     52     15      -25.01    
     17      1     49     18      -34.39    
     18      1     50     18      -34.39    
     19      1     49     19      -34.39    
     20      1     50     19      -34.39    
     21      1     44     22      -201.2    
     22      1     45     23     -0.8708    
     23      1     46     23     -0.8708    
     24      1     47     23      -6.065    
     25      1     48     23      -6.065    
     26      1     29     24      -659.7    
     27      1     30     24      -659.7    
     28      1     45     24     -0.8708    
     29      1     46     24     -0.8708    
     30      1     47     24      -6.065    
     31      1     48     24      -6.065    
     32      1     45     25     -0.5064    
     33      1     46     25     -0.5064    
     34      1     47     25      -4.205    
     35      1     48     25      -4.205    
     36      1     45     26     -0.5064    
     37      1     46     26     -0.5064    
     38      1     47     26      -4.205    
     39      1     48     26      -4.205    
     40      1     34     29      -15.22    
     41      1     35     29      -15.22    
     42      1     34     30      -15.22    
     43      1     35     30      -15.22    
     44      1     25     34      -4.432    
     45      1     26     34      -4.432    
     46      1     27     34      -12.63    
     47      1     28     34      -12.63    
     48      1     25     35      -4.432    
     49      1     26     35      -4.432    
     50      1     27     35      -12.63    
     51      1     28     35      -12.63    
     52      1     25     36      -2.228    
     53      1     26     36      -2.228    
     54      1     27     36      -2.953    
     55      1     28     36      -2.953    
     56      1     25     37      -2.228    
     57      1     26     37      -2.228    
     58      1     27     37      -2.953    
     59      1     28     37      -2.953    
     60      1     73     41      -18.58    
     61      1     74     41      -18.58    
     62      1     73     42      -18.58    
     63      1     74     42      -18.58    
     64      1     35     43      -31.41    
     65      1     35     44      -31.41    
     66      1     31     45      -26.31    
     67      1     32     45      -26.31    
     68      1     33     45      -55.71    
     69      1     34     45      -55.71    
     70      1     31     46      -12.09    
     71      1     32     46      -12.09    
     72      1     33     46      -27.15    
     73      1     34     46      -27.15    
     74      1     31     47      -12.09    
     75      1     32     47      -12.09    
     76      1     33     47      -27.15    
     77      1     34     47      -27.15    
     78      1     20     48      -1.070    
     79      1     21     48      -1.070    
     80      1     27     48      -115.6    
     81      1     28     48      -115.6    
     82      1     20     49      -1.070    
     83      1     21     49      -1.070    
     84      1     27     49      -115.6    
     85      1     28     49      -115.6    
     86      1     18     50     -0.3683    
     87      1     19     50     -0.3683    
     88      1     20     50      -8.878    
     89      1     21     50      -8.878    
     90      1     27     50      -233.6    
     91      1     28     50      -233.6    
     92      1     53     50      -1.747    
     93      1     54     50      -1.747    
     94      1     60     50      -7.429    
     95      1     61     50      -7.429    
     96      1     18     51     -0.3683    
     97      1     19     51     -0.3683    
     98      1     20     51      -8.878    
     99      1     21     51      -8.878    
    100      1     27     51      -233.6    
    101      1     28     51      -233.6    
    102      1     53     51      -1.747    
    103      1     54     51      -1.747    
    104      1     60     51      -7.429    
    105      1     61     51      -7.429    
    106      1     86     51      -1.372    
    107      1     87     51      -1.372    
    108      1     18     52      -2.021    
    109      1     19     52      -2.021    
    110      1     25     52      -5.503    
    111      1     26     52      -5.503    
    112      1     27     52      -46.25    
    113      1     28     52      -46.25    
    114      1     29     52      -20.37    
    115      1     30     52      -20.37    
    116      1     33     52      -81.84    
    117      1     34     52      -81.84    
    118      1     35     52      -99.99    
    119      1     53     52      -89.85    
    120      1     54     52      -89.85    
    121      1     59     52      -13.69    
    122      1     70     52      -62.77    
    123      1     86     52      -1.372    
    124      1     87     52      -1.372    
    125      1     18     53      -2.021    
    126      1     19     53      -2.021    
    127      1     25     53      -5.503    
    128      1     26     53      -5.503    
    129      1     27     53      -46.25    
    130      1     28     53      -46.25    
    131      1     29     53      -20.37    
    132      1     30     53      -20.37    
    133      1     33     53      -81.84    
    134      1     34     53      -81.84    
    135      1     35     53      -99.99    
    136      1     51     53      -1.372    
    137      1     52     53      -1.372    
    138      1     53     53      -5.826    
    139      1     54     53      -5.826    
    140      1     70     53      -28.05    
    141      1     86     53      -4.039    
    142      1     87     53      -4.039    
    143      1     25     54      -23.35    
    144      1     26     54      -23.35    
    145      1     33     54      -44.78    
    146      1     34     54      -44.78    
    147      1     35     54      -151.8    
    148      1     51     54      -1.372    
    149      1     52     54      -1.372    
    150      1     53     54      -5.826    
    151      1     54     54      -5.826    
    152      1     70     54      -28.05    
    153      1     86     54      -4.039    
    154      1     87     54      -4.039    
    155      1     14     55      -5.553    
    156      1     15     55      -5.553    
    157      1     16     55      -2.849    
    158      1     17     55      -2.849    
    159      1     20     55      -17.26    
    160      1     21     55      -17.26    
    161      1     29     55      -20.92    
    162      1     30     55      -20.92    
    163      1     60     55      -3.833    
    164      1     61     55      -3.833    
    165      1     62     55      -14.86    
    166      1     63     55      -14.86    
    167      1     64     55     -0.6060    
    168      1     65     55     -0.6060    
    169      1     66     55     -0.5875    
    170      1     67     55     -0.5875    
    171      1     70     55      -31.56    
    172      1     71     55     -0.8779    
    173      1     72     55     -0.8779    
    174      1     79     55      -24.56    
    175      1     80     55      -24.56    
    176      1     84     55      -19.85    
    177      1     85     55      -19.85    
    178      1     86     55     -0.1696    
    179      1     87     55     -0.1696    
    180      1     14     56      -5.553    
    181      1     15     56      -5.553    
    182      1     16     56      -2.849    
    183      1     17     56      -2.849    
    184      1     20     56      -17.26    
    185      1     21     56      -17.26    
    186      1     29     56      -20.92    
    187      1     30     56      -20.92    
    188      1     60     56      -3.833    
    189      1     61     56      -3.833    
    190      1     62     56      -14.86    
    191      1     63     56      -14.86    
    192      1     64     56     -0.6060    
    193      1     65     56     -0.6060    
    194      1     66     56     -0.5875    
    195      1     67     56     -0.5875    
    196      1     70     56      -31.56    
    197      1     71     56     -0.8779    
    198      1     72     56     -0.8779    
    199      1     79     56      -24.56    
    200      1     80     56      -24.56    
    201      1     84     56      -19.85    
    202      1     85     56      -19.85    
    203      1     86     56     -0.1696    
    204      1     87     56     -0.1696    
    205      1     16     57      -8.418    
    206      1     17     57      -8.418    
    207      1     20     57     -0.1906    
    208      1     21     57     -0.1906    
    209      1     29     57      -6.444    
    210      1     30     57      -6.444    
    211      1     38     57      -9.901    
    212      1     39     57      -9.901    
    213      1     40     57      -6.820    
    214      1     41     57      -6.820    
    215      1     59     57      -84.63    
    216      1     60     57      -16.40    
    217      1     61     57      -16.40    
    218      1     62     57      -9.167    
    219      1     63     57      -9.167    
    220      1     66     57      -23.80    
    221      1     67     57      -23.80    
    222      1     68     57      -1.756    
    223      1     69     57      -1.756    
    224      1     70     57      -5.080    
    225      1     77     57      -33.16    
    226      1     78     57      -33.16    
    227      1     83     57      -18.86    
    228      1     84     57      -7.785    
    229      1     85     57      -7.785    
    230      1     16     58      -8.418    
    231      1     17     58      -8.418    
    232      1     20     58     -0.1906    
    233      1     21     58     -0.1906    
    234      1     29     58      -6.444    
    235      1     30     58      -6.444    
    236      1     38     58      -9.901    
    237      1     39     58      -9.901    
    238      1     40     58      -6.820    
    239      1     41     58      -6.820    
    240      1     59     58      -84.63    
    241      1     60     58      -16.40    
    242      1     61     58      -16.40    
    243      1     62     58      -9.167    
    244      1     63     58      -9.167    
    245      1     66     58      -23.80    
    246      1     67     58      -23.80    
    247      1     68     58      -1.756    
    248      1     69     58      -1.756    
    249      1     70     58      -5.080    
    250      1     77     58      -33.16    
    251      1     78     58      -33.16    
    252      1     83     58      -9.118    
    253      1     84     58      -3.667    
    254      1     85     58      -3.667    
    255      1     16     59      -11.00    
    256      1     17     59      -11.00    
    257      1     20     59     -0.6460    
    258      1     21     59     -0.6460    
    259      1     27     59      -22.55    
    260      1     28     59      -22.55    
    261      1     31     59      -17.68    
    262      1     32     59      -17.68    
    263      1     59     59      -6.111    
    264      1     62     59      -22.30    
    265      1     63     59      -22.30    
    266      1     64     59     -0.1754    
    267      1     65     59     -0.1754    
    268      1     66     59     -0.1774    
    269      1     67     59     -0.1774    
    270      1     70     59      -4.767    
    271      1     71     59      -4.767    
    272      1     77     59      -62.10    
    273      1     78     59      -62.10    
    274      1     79     59      -38.02    
    275      1     80     59      -38.02    
    276      1     83     59      -9.118    
    277      1     84     59      -3.667    
    278      1     85     59      -3.667    
    279      1     16     60      -11.00    
    280      1     17     60      -11.00    
    281      1     20     60     -0.6460    
    282      1     21     60     -0.6460    
    283      1     27     60      -22.55    
    284      1     28     60      -22.55    
    285      1     31     60      -17.68    
    286      1     32     60      -17.68    
    287      1     53     60      -5.425    
    288      1     54     60      -5.425    
    289      1     55     60      -4.761    
    290      1     56     60      -4.761    
    291      1     59     60      -3.127    
    292      1     62     60      -12.68    
    293      1     63     60      -12.68    
    294      1     64     60     -0.8622E-01
    295      1     65     60     -0.8622E-01
    296      1     70     60      -2.399    
    297      1     71     60      -2.399    
    298      1     11     61      -3.554    
    299      1     14     61      -11.06    
    300      1     15     61      -11.06    
    301      1     16     61      -68.47    
    302      1     17     61      -68.47    
    303      1     20     61      -23.81    
    304      1     21     61      -23.81    
    305      1     22     61      -14.21    
    306      1     23     61      -14.21    
    307      1     53     61      -5.425    
    308      1     54     61      -5.425    
    309      1     55     61      -4.761    
    310      1     56     61      -4.761    
    311      1     59     61      -3.127    
    312      1     62     61      -12.68    
    313      1     63     61      -12.68    
    314      1     64     61     -0.8622E-01
    315      1     65     61     -0.8622E-01
    316      1     70     61      -2.399    
    317      1     71     61      -2.399    
    318      1     14     62      -4.924    
    319      1     15     62      -4.924    
    320      1     16     62      -30.26    
    321      1     17     62      -30.26    
    322      1     18     62      -12.58    
    323      1     19     62      -12.58    
    324      1     22     62      -7.642    
    325      1     23     62      -7.642    
    326      1     38     62      -5.825    
    327      1     39     62      -5.825    
    328      1     55     62      -72.23    
    329      1     56     62      -72.23    
    330      1     57     62      -4.397    
    331      1     58     62      -4.397    
    332      1     60     62      -19.43    
    333      1     61     62      -19.43    
    334      1     62     62      -26.69    
    335      1     63     62      -26.69    
    336      1     75     62      -3.294    
    337      1     76     62      -3.294    
    338      1     14     63      -4.924    
    339      1     15     63      -4.924    
    340      1     16     63      -30.26    
    341      1     17     63      -30.26    
    342      1     18     63      -12.58    
    343      1     19     63      -12.58    
    344      1     22     63      -7.642    
    345      1     23     63      -7.642    
    346      1     38     63      -5.825    
    347      1     39     63      -5.825    
    348      1     55     63      -72.23    
    349      1     56     63      -72.23    
    350      1     57     63      -4.397    
    351      1     58     63      -4.397    
    352      1     60     63      -19.43    
    353      1     61     63      -19.43    
    354      1     62     63      -26.69    
    355      1     63     63      -26.69    
    356      1     75     63      -3.294    
    357      1     76     63      -3.294    
    358      1     14     64      -1.934    
    359      1     15     64      -1.934    
    360      1     16     64      -26.18    
    361      1     17     64      -26.18    
    362      1     18     64      -13.68    
    363      1     19     64      -13.68    
    364      1     20     64      -12.93    
    365      1     21     64      -12.93    
    366      1     22     64     -0.2122E-01
    367      1     23     64     -0.2122E-01
    368      1     24     64      -13.26    
    369      1     35     64      -14.94    
    370      1     36     64      -78.36    
    371      1     37     64      -78.36    
    372      1     38     64      -86.80    
    373      1     39     64      -86.80    
    374      1     51     64      -2.890    
    375      1     52     64      -2.890    
    376      1     57     64      -17.23    
    377      1     58     64      -17.23    
    378      1     59     64      -14.42    
    379      1     60     64     -0.8264    
    380      1     61     64     -0.8264    
    381      1     62     64      -111.2    
    382      1     63     64      -111.2    
    383      1     64     64      -5.195    
    384      1     65     64      -5.195    
    385      1     75     64      -41.85    
    386      1     76     64      -41.85    
    387      1     79     64     -0.5596    
    388      1     80     64     -0.5596    
    389      1     14     65      -1.934    
    390      1     15     65      -1.934    
    391      1     16     65      -26.18    
    392      1     17     65      -26.18    
    393      1     18     65      -13.68    
    394      1     19     65      -13.68    
    395      1     20     65      -12.93    
    396      1     21     65      -12.93    
    397      1     22     65     -0.2122E-01
    398      1     23     65     -0.2122E-01
    399      1     24     65      -13.26    
    400      1     35     65      -14.94    
    401      1     36     65      -14.94    
    402      1     37     65      -78.36    
    403      1     38     65      -86.80    
    404      1     39     65      -86.80    
    405      1     51     65      -2.890    
    406      1     52     65      -2.890    
    407      1     57     65      -17.23    
    408      1     58     65      -17.23    
    409      1     59     65      -14.42    
    410      1     60     65     -0.8264    
    411      1     61     65     -0.8264    
    412      1     62     65      -111.2    
    413      1     63     65      -111.2    
    414      1     64     65      -5.195    
    415      1     65     65      -5.195    
    416      1     75     65      -41.85    
    417      1     76     65      -41.85    
    418      1     79     65     -0.5596    
    419      1     80     65     -0.5596    
    420      1     14     66      -4.407    
    421      1     15     66      -4.407    
    422      1     16     66      -3.268    
    423      1     17     66      -3.268    
    424      1     18     66      -389.3    
    425      1     19     66      -389.3    
    426      1     20     66      -401.2    
    427      1     21     66      -401.2    
    428      1     24     66      -24.17    
    429      1     25     66      -12.54    
    430      1     26     66      -12.54    
    431      1     40     66      -3.599    
    432      1     41     66      -3.599    
    433      1     51     66      -3.602    
    434      1     52     66      -3.602    
    435      1     57     66      -5.342    
    436      1     58     66      -5.342    
    437      1     59     66      -541.2    
    438      1     60     66      -811.4    
    439      1     61     66      -811.4    
    440      1     62     66      -1792.    
    441      1     63     66      -1792.    
    442      1     64     66      -34.96    
    443      1     65     66      -34.96    
    444      1     79     66      -20.96    
    445      1     80     66      -20.96    
    446      1     14     67      -4.407    
    447      1     15     67      -4.407    
    448      1     16     67      -3.268    
    449      1     17     67      -3.268    
    450      1     18     67      -389.3    
    451      1     19     67      -389.3    
    452      1     20     67      -401.2    
    453      1     21     67      -401.2    
    454      1     24     67      -24.17    
    455      1     25     67      -12.54    
    456      1     26     67      -12.54    
    457      1     40     67      -3.599    
    458      1     41     67      -3.599    
    459      1     51     67      -3.602    
    460      1     52     67      -3.602    
    461      1     59     67      -262.2    
    462      1     60     67      -715.6    
    463      1     61     67      -715.6    
    464      1     62     67      -1133.    
    465      1     63     67      -1133.    
    466      1     64     67      -113.6    
    467      1     65     67      -113.6    
    468      1     66     67      -58.70    
    469      1     67     67      -58.70    
    470      1     68     67      -56.06    
    471      1     69     67      -56.06    
    472      1     70     67      -41.97    
    473      1     71     67      -41.97    
    474      1     73     67      -2.297    
    475      1     74     67      -2.297    
    476      1     79     67      -51.49    
    477      1     80     67      -51.49    
    478      1     81     67      -13.23    
    479      1     82     67      -13.23    
    480      1     83     67      -64.34    
    481      1     84     67      -17.58    
    482      1     85     67      -17.58    
    483      1     11     68      -26.35    
    484      1     12     68      -26.35    
    485      1     13     68     -0.5064    
    486      1     14     68      -8.750    
    487      1     15     68      -8.750    
    488      1     16     68      -12.69    
    489      1     17     68      -12.69    
    490      1     18     68      -644.8    
    491      1     19     68      -644.8    
    492      1     20     68      -644.8    
    493      1     21     68      -644.8    
    494      1     22     68      -528.5    
    495      1     23     68      -528.5    
    496      1     25     68      -220.5    
    497      1     26     68      -220.5    
    498      1     40     68      -7.773    
    499      1     41     68      -7.773    
    500      1     51     68      -63.92    
    501      1     52     68      -63.92    
    502      1     59     68      -262.2    
    503      1     60     68      -715.6    
    504      1     61     68      -715.6    
    505      1     62     68      -1133.    
    506      1     63     68      -1133.    
    507      1     64     68      -113.6    
    508      1     65     68      -113.6    
    509      1     66     68      -58.70    
    510      1     67     68      -58.70    
    511      1     68     68      -56.06    
    512      1     69     68      -56.06    
    513      1     70     68      -41.97    
    514      1     71     68      -41.97    
    515      1     73     68      -2.297    
    516      1     74     68      -2.297    
    517      1     79     68      -51.49    
    518      1     80     68      -51.49    
    519      1     81     68      -13.23    
    520      1     82     68      -13.23    
    521      1     83     68      -64.34    
    522      1     84     68      -17.58    
    523      1     85     68      -17.58    
    524      1     11     69      -26.35    
    525      1     12     69      -26.35    
    526      1     13     69     -0.5064    
    527      1     14     69      -8.750    
    528      1     15     69      -8.750    
    529      1     18     69      -11.02    
    530      1     19     69      -11.02    
    531      1     20     69      -151.3    
    532      1     21     69      -151.3    
    533      1     22     69      -367.3    
    534      1     23     69      -367.3    
    535      1     24     69      -404.3    
    536      1     27     69      -7.654    
    537      1     28     69      -7.654    
    538      1     29     69      -49.43    
    539      1     30     69      -49.43    
    540      1     33     69      -24.38    
    541      1     34     69      -24.38    
    542      1     40     69     -0.6786    
    543      1     41     69     -0.6786    
    544      1     42     69      -12.90    
    545      1     43     69      -12.90    
    546      1     44     69      -12.28    
    547      1     45     69      -12.28    
    548      1     51     69      -5.068    
    549      1     52     69      -5.068    
    550      1     53     69      -52.05    
    551      1     54     69      -52.05    
    552      1     57     69      -6.167    
    553      1     58     69      -6.167    
    554      1     59     69      -37.27    
    555      1     60     69      -37.27    
    556      1     64     69      -66.97    
    557      1     65     69      -66.97    
    558      1     72     69     -0.1262    
    559      1     73     69      -11.14    
    560      1     74     69      -11.14    
    561      1     75     69      -31.21    
    562      1     76     69      -31.21    
    563      1     79     69      -12.44    
    564      1     80     69      -12.44    
    565      1     81     69      -38.50    
    566      1     82     69      -38.50    
    567      1     83     69      -7.218    
    568      1      9     70      -308.8    
    569      1     10     70      -308.8    
    570      1     11     70      -270.7    
    571      1     12     70      -270.7    
    572      1     13     70      -725.0    
    573      1     14     70      -120.4    
    574      1     15     70      -120.4    
    575      1     18     70      -11.02    
    576      1     19     70      -11.02    
    577      1     20     70      -151.3    
    578      1     21     70      -151.3    
    579      1     22     70      -367.3    
    580      1     23     70      -367.3    
    581      1     24     70      -404.3    
    582      1     27     70      -7.654    
    583      1     28     70      -7.654    
    584      1     29     70      -49.43    
    585      1     30     70      -49.43    
    586      1     33     70      -24.38    
    587      1     34     70      -24.38    
    588      1     40     70     -0.6786    
    589      1     41     70     -0.6786    
    590      1     42     70      -12.90    
    591      1     43     70      -12.90    
    592      1     44     70      -12.28    
    593      1     45     70      -12.28    
    594      1     51     70      -5.068    
    595      1     52     70      -5.068    
    596      1     53     70      -52.05    
    597      1     54     70      -52.05    
    598      1     57     70      -6.167    
    599      1     58     70      -6.167    
    600      1     59     70      -37.27    
    601      1     60     70      -37.27    
    602      1     64     70      -66.97    
    603      1     65     70      -66.97    
    604      1     72     70     -0.1262    
    605      1     73     70      -11.14    
    606      1     74     70      -11.14    
    607      1     75     70      -31.21    
    608      1     76     70      -31.21    
    609      1     79     70      -12.44    
    610      1     80     70      -12.44    
    611      1     81     70      -38.50    
    612      1     82     70      -38.50    
    613      1     83     70      -7.218    
    614      1      9     71     -0.8832    
    615      1     10     71     -0.8832    
    616      1     11     71      -12.41    
    617      1     12     71      -12.41    
    618      1     16     71      -62.39    
    619      1     17     71      -62.39    
    620      1     18     71      -80.10    
    621      1     19     71      -80.10    
    622      1     20     71      -68.25    
    623      1     21     71      -68.25    
    624      1     25     71      -183.1    
    625      1     26     71      -183.1    
    626      1     35     71      -135.3    
    627      1     36     71      -135.3    
    628      1     40     71      -5.993    
    629      1     41     71      -5.993    
    630      1     44     71      -46.25    
    631      1     45     71      -46.25    
    632      1     53     71      -10.73    
    633      1     54     71      -10.73    
    634      1     57     71      -3.016    
    635      1     58     71      -3.016    
    636      1     59     71      -24.26    
    637      1     60     71      -24.26    
    638      1     62     71      -5.473    
    639      1     63     71      -5.473    
    640      1     64     71      -106.2    
    641      1     65     71      -106.2    
    642      1     66     71      -5.759    
    643      1     67     71      -5.759    
    644      1     68     71      -6.018    
    645      1     69     71      -6.018    
    646      1     70     71      -32.18    
    647      1     71     71      -32.18    
    648      1     72     71      -37.72    
    649      1      9     72     -0.8832    
    650      1     10     72     -0.8832    
    651      1     11     72      -12.41    
    652      1     12     72      -12.41    
    653      1     16     72      -62.39    
    654      1     17     72      -62.39    
    655      1     18     72      -80.10    
    656      1     19     72      -80.10    
    657      1     20     72      -68.25    
    658      1     21     72      -68.25    
    659      1     25     72      -183.1    
    660      1     26     72      -183.1    
    661      1     35     72      -135.3    
    662      1     36     72      -135.3    
    663      1     40     72      -5.993    
    664      1     41     72      -5.993    
    665      1     44     72      -46.25    
    666      1     45     72      -46.25    
    667      1     53     72      -10.73    
    668      1     54     72      -10.73    
    669      1     57     72      -3.016    
    670      1     58     72      -3.016    
    671      1     59     72      -24.26    
    672      1     60     72      -24.26    
    673      1     62     72      -5.473    
    674      1     63     72      -5.473    
    675      1     64     72      -106.2    
    676      1     65     72      -106.2    
    677      1     66     72      -5.759    
    678      1     67     72      -5.759    
    679      1     68     72      -6.018    
    680      1     69     72      -6.018    
    681      1     70     72      -32.18    
    682      1     71     72      -32.18    
    683      1     72     72      -37.72    
    684      1     16     73      -2.072    
    685      1     17     73      -2.072    
    686      1     18     73      -1.308    
    687      1     19     73      -1.308    
    688      1     20     73      -1.195    
    689      1     21     73      -1.195    
    690      1     25     73     -0.1015    
    691      1     26     73     -0.1015    
    692      1     27     73      -133.3    
    693      1     28     73      -133.3    
    694      1     29     73      -171.0    
    695      1     30     73      -171.0    
    696      1     31     73      -152.3    
    697      1     32     73      -152.3    
    698      1     33     73      -40.77    
    699      1     34     73      -40.77    
    700      1     40     73      -83.82    
    701      1     41     73      -83.82    
    702      1     42     73      -10.58    
    703      1     43     73      -10.58    
    704      1     46     73      -10.96    
    705      1     47     73      -10.96    
    706      1     53     73      -54.80    
    707      1     54     73      -54.80    
    708      1     55     73      -54.38    
    709      1     56     73      -54.38    
    710      1     66     73      -4.157    
    711      1     67     73      -4.157    
    712      1     68     73      -4.306    
    713      1     69     73      -4.306    
    714      1     70     73      -43.47    
    715      1     71     73      -43.47    
    716      1     72     73      -2.919    
    717      1     16     74      -2.072    
    718      1     17     74      -2.072    
    719      1     18     74      -1.308    
    720      1     19     74      -1.308    
    721      1     20     74      -1.195    
    722      1     21     74      -1.195    
    723      1     25     74     -0.1015    
    724      1     26     74     -0.1015    
    725      1     27     74      -133.3    
    726      1     28     74      -133.3    
    727      1     29     74      -171.0    
    728      1     30     74      -171.0    
    729      1     31     74      -152.3    
    730      1     32     74      -152.3    
    731      1     33     74      -40.77    
    732      1     34     74      -40.77    
    733      1     40     74      -83.82    
    734      1     41     74      -83.82    
    735      1     42     74      -10.58    
    736      1     43     74      -10.58    
    737      1     46     74      -10.96    
    738      1     47     74      -10.96    
    739      1     53     74      -54.80    
    740      1     54     74      -54.80    
    741      1     55     74      -54.38    
    742      1     56     74      -54.38    
    743      1     62     74      -25.45    
    744      1     63     74      -25.45    
    745      1     68     74      -2.099    
    746      1     69     74      -2.099    
    747      1     70     74      -20.76    
    748      1     71     74      -20.76    
    749      1     25     75      -17.05    
    750      1     26     75      -17.05    
    751      1     33     75      -5.673    
    752      1     34     75      -5.673    
    753      1     35     75      -283.2    
    754      1     36     75      -283.2    
    755      1     37     75      -536.9    
    756      1     38     75      -756.1    
    757      1     39     75      -756.1    
    758      1     48     75      -8.431    
    759      1     53     75      -130.2    
    760      1     54     75      -130.2    
    761      1     55     75      -126.5    
    762      1     56     75      -126.5    
    763      1     62     75      -25.45    
    764      1     63     75      -25.45    
    765      1     68     75      -2.099    
    766      1     69     75      -2.099    
    767      1     70     75      -20.76    
    768      1     71     75      -20.76    
    769      1     26     76      -16.33    
    770      1     38     76      -466.4    
    771      1     39     76      -466.4    
    772      1     40     76      -55.26    
    773      1     41     76      -55.26    
    774      1     42     76      -23.17    
    775      1     43     76      -23.17    
    776      1     44     76      -23.35    
    777      1     45     76      -23.35    
    778      1     48     76      -4.268    
    779      1     53     76      -9.747    
    780      1     54     76      -9.747    
    781      1     55     76      -7.642    
    782      1     56     76      -7.642    
    783      1     57     76      -58.81    
    784      1     58     76      -58.81    
    785      1     59     76      -69.25    
    786      1     60     76      -69.25    
    787      1     61     76      -5.549    
    788      1     62     76      -42.18    
    789      1     63     76      -42.18    
    790      1     73     76      -2.603    
    791      1     74     76      -2.603    
    792      1     79     76     -0.7630    
    793      1     80     76     -0.7630    
    794      1     81     76      -8.690    
    795      1     82     76      -8.690    
    796      1     26     77      -16.33    
    797      1     38     77      -466.4    
    798      1     39     77      -466.4    
    799      1     40     77      -55.26    
    800      1     41     77      -55.26    
    801      1     42     77      -23.17    
    802      1     43     77      -23.17    
    803      1     44     77      -23.35    
    804      1     45     77      -23.35    
    805      1     48     77      -4.268    
    806      1     53     77      -9.747    
    807      1     54     77      -9.747    
    808      1     55     77      -7.642    
    809      1     56     77      -7.642    
    810      1     57     77      -58.81    
    811      1     58     77      -58.81    
    812      1     59     77      -69.25    
    813      1     60     77      -69.25    
    814      1     61     77      -5.549    
    815      1     62     77      -42.18    
    816      1     63     77      -42.18    
    817      1     73     77      -2.603    
    818      1     74     77      -2.603    
    819      1     79     77     -0.7630    
    820      1     80     77     -0.7630    
    821      1     81     77      -8.690    
    822      1     82     77      -8.690    
    823      1     33     78      -4.622    
    824      1     34     78      -4.622    
    825      1     35     78      -53.07    
    826      1     36     78      -53.07    
    827      1     38     78      -57.41    
    828      1     39     78      -57.41    
    829      1     40     78      -24.14    
    830      1     41     78      -24.14    
    831      1     42     78      -38.32    
    832      1     43     78      -38.32    
    833      1     44     78      -38.33    
    834      1     45     78      -38.33    
    835      1     46     78      -10.88    
    836      1     47     78      -10.88    
    837      1     53     78      -11.19    
    838      1     54     78      -11.19    
    839      1     55     78      -12.72    
    840      1     56     78      -12.72    
    841      1     57     78      -3.232    
    842      1     58     78      -3.232    
    843      1     59     78      -38.45    
    844      1     60     78      -38.45    
    845      1     61     78      -96.38    
    846      1     62     78      -102.4    
    847      1     63     78      -102.4    
    848      1     77     78      -7.072    
    849      1     78     78      -7.072    
    850      1     79     78      -9.597    
    851      1     80     78      -9.597    
    852      1     83     78      -14.69    
    853      1     84     78      -14.69    
    854      1     85     78      -33.05    
    855      1     33     79      -4.622    
    856      1     34     79      -4.622    
    857      1     35     79      -53.07    
    858      1     36     79      -53.07    
    859      1     38     79      -57.41    
    860      1     39     79      -57.41    
    861      1     40     79      -24.14    
    862      1     41     79      -24.14    
    863      1     42     79      -38.32    
    864      1     43     79      -38.32    
    865      1     44     79      -38.33    
    866      1     45     79      -38.33    
    867      1     46     79      -10.88    
    868      1     47     79      -10.88    
    869      1     53     79      -11.19    
    870      1     54     79      -11.19    
    871      1     55     79      -12.72    
    872      1     56     79      -12.72    
    873      1     57     79      -3.232    
    874      1     58     79      -3.232    
    875      1     59     79      -38.45    
    876      1     60     79      -38.45    
    877      1     61     79      -96.38    
    878      1     62     79      -102.4    
    879      1     63     79      -102.4    
    880      1     77     79      -7.072    
    881      1     78     79      -7.072    
    882      1     79     79      -9.597    
    883      1     80     79      -9.597    
    884      1     83     79      -14.69    
    885      1     84     79      -14.69    
    886      1     85     79      -33.05    
    887      1     11     80      -1.528    
    888      1     12     80      -1.528    
    889      1     20     80      -2.809    
    890      1     21     80      -2.809    
    891      1     27     80      -2.601    
    892      1     28     80      -2.601    
    893      1     35     80     -0.1528    
    894      1     36     80     -0.1528    
    895      1     37     80      -42.18    
    896      1     38     80      -12.37    
    897      1     39     80      -12.37    
    898      1     40     80      -23.19    
    899      1     41     80      -23.19    
    900      1     42     80      -16.48    
    901      1     43     80      -16.48    
    902      1     44     80      -17.72    
    903      1     45     80      -17.72    
    904      1     48     80     -0.4331    
    905      1     49     80     -0.4331    
    906      1     50     80      -14.02    
    907      1     53     80     -0.4711E-01
    908      1     54     80     -0.4711E-01
    909      1     55     80     -0.7700    
    910      1     56     80     -0.7700    
    911      1     57     80      -4.072    
    912      1     58     80      -4.072    
    913      1     61     80      -11.94    
    914      1     62     80      -21.02    
    915      1     63     80      -21.02    
    916      1     70     80      -3.789    
    917      1     71     80      -3.789    
    918      1     72     80      -8.328    
    919      1     79     80     -0.9280    
    920      1     80     80     -0.9280    
    921      1     81     80      -109.3    
    922      1     82     80      -109.3    
    923      1     83     80      -3.001    
    924      1     84     80      -3.001    
    925      1     11     81      -1.528    
    926      1     12     81      -1.528    
    927      1     20     81      -2.809    
    928      1     21     81      -2.809    
    929      1     27     81      -2.601    
    930      1     28     81      -2.601    
    931      1     35     81     -0.1528    
    932      1     36     81     -0.1528    
    933      1     37     81      -42.18    
    934      1     38     81      -12.37    
    935      1     39     81      -12.37    
    936      1     40     81      -23.19    
    937      1     41     81      -23.19    
    938      1     42     81      -16.48    
    939      1     43     81      -16.48    
    940      1     44     81      -17.72    
    941      1     45     81      -17.72    
    942      1     48     81     -0.4331    
    943      1     49     81     -0.4331    
    944      1     50     81      -14.02    
    945      1     53     81     -0.4711E-01
    946      1     54     81     -0.4711E-01
    947      1     55     81     -0.7700    
    948      1     56     81     -0.7700    
    949      1     57     81      -4.072    
    950      1     58     81      -4.072    
    951      1     61     81      -11.94    
    952      1     62     81      -21.02    
    953      1     63     81      -21.02    
    954      1     70     81      -3.789    
    955      1     81     81      -19.34    
    956      1     82     81      -19.34    
    957      1     83     81     -0.9970    
    958      1     84     81     -0.9970    
    959      1      9     82      -3.006    
    960      1     10     82      -3.006    
    961      1     40     82      -3.242    
    962      1     41     82      -3.242    
    963      1     42     82      -1008.    
    964      1     43     82      -1008.    
    965      1     44     82      -810.0    
    966      1     45     82      -810.0    
    967      1     46     82      -206.3    
    968      1     47     82      -206.3    
    969      1     48     82      -100.6    
    970      1     49     82      -100.6    
    971      1     50     82      -36.52    
    972      1     51     82      -3.807    
    973      1     52     82      -3.807    
    974      1     53     82      -11.98    
    975      1     54     82      -11.98    
    976      1     55     82      -5.693    
    977      1     56     82      -5.693    
    978      1     57     82      -26.51    
    979      1     58     82      -26.51    
    980      1     61     82      -16.97    
    981      1     62     82      -37.29    
    982      1     63     82      -37.29    
    983      1     64     82     -0.4240    
    984      1     65     82     -0.4240    
    985      1     81     82      -19.34    
    986      1     82     82      -19.34    
    987      1     83     82     -0.9970    
    988      1     84     82     -0.9970    
    989      1      9     83      -3.006    
    990      1     10     83      -3.006    
    991      1     37     83      -64.82    
    992      1     38     83      -21.79    
    993      1     39     83      -21.79    
    994      1     40     83      -124.6    
    995      1     41     83      -124.6    
    996      1     42     83     -0.1763E-01
    997      1     43     83     -0.1763E-01
    998      1     44     83      -70.15    
    999      1     45     83      -70.15    
   1000      1     46     83      -69.13    
   1001      1     47     83      -69.13    
   1002      1     48     83      -14.35    
   1003      1     49     83      -14.35    
   1004      1     50     83      -168.8    
   1005      1     55     83      -8.854    
   1006      1     56     83      -8.854    
   1007      1     57     83      -6.777    
   1008      1     58     83      -6.777    
   1009      1     59     83      -135.0    
   1010      1     60     83      -135.0    
   1011      1     61     83      -10.63    
   1012      1     68     83     -0.8802    
   1013      1     69     83     -0.8802    
   1014      1     70     83      -11.57    
   1015      1     71     83      -11.57    
   1016      1     75     83      -3.298    
   1017      1     76     83      -3.298    
   1018      1     77     83      -39.01    
   1019      1     78     83      -39.01    
   1020      1     81     83      -2.123    
   1021      1     82     83      -2.123    
   1022      1     83     83      -118.2    
   1023      1     84     83      -118.2    
   1024      1     85     83      -37.32    
   1025      1     37     84      -64.82    
   1026      1     38     84      -21.79    
   1027      1     39     84      -21.79    
   1028      1     40     84      -124.6    
   1029      1     41     84      -124.6    
   1030      1     42     84     -0.1763E-01
   1031      1     43     84     -0.1763E-01
   1032      1     44     84      -70.15    
   1033      1     45     84      -70.15    
   1034      1     46     84      -69.13    
   1035      1     47     84      -69.13    
   1036      1     48     84      -14.35    
   1037      1     49     84      -14.35    
   1038      1     50     84      -168.8    
   1039      1     55     84      -8.854    
   1040      1     56     84      -8.854    
   1041      1     57     84      -6.777    
   1042      1     58     84      -6.777    
   1043      1     59     84      -135.0    
   1044      1     60     84      -135.0    
   1045      1     61     84      -10.63    
   1046      1     68     84     -0.8802    
   1047      1     69     84     -0.8802    
   1048      1     70     84      -11.57    
   1049      1     71     84      -11.57    
   1050      1     75     84      -3.298    
   1051      1     76     84      -3.298    
   1052      1     77     84      -39.01    
   1053      1     78     84      -39.01    
   1054      1     81     84      -2.123    
   1055      1     82     84      -2.123    
   1056      1     83     84      -118.2    
   1057      1     84     84      -118.2    
   1058      1     85     84      -37.32    
   1059      1      7     85      -1.516    
   1060      1      8     85      -1.516    
   1061      1      9     85      -17.71    
   1062      1     10     85      -17.71    
   1063      1     16     85      -29.81    
   1064      1     17     85      -29.81    
   1065      1     18     85      -15.47    
   1066      1     19     85      -15.47    
   1067      1     37     85      -190.7    
   1068      1     38     85      -113.1    
   1069      1     39     85      -113.1    
   1070      1     44     85      -9.396    
   1071      1     45     85      -9.396    
   1072      1     46     85      -9.941    
   1073      1     47     85      -9.941    
   1074      1     48     85      -37.26    
   1075      1     49     85      -37.26    
   1076      1     50     85      -194.4    
   1077      1     51     85      -1.656    
   1078      1     52     85      -1.656    
   1079      1     55     85      -3.541    
   1080      1     56     85      -3.541    
   1081      1     59     85      -50.46    
   1082      1     60     85      -50.46    
   1083      1     61     85      -1.138    
   1084      1     68     85      -2.871    
   1085      1     69     85      -2.871    
   1086      1     70     85      -9.782    
   1087      1     71     85      -9.782    
   1088      1     74     85      -2.358    
   1089      1     75     85      -8.485    
   1090      1     76     85      -8.485    
   1091      1     77     85      -9.103    
   1092      1     78     85      -9.103    
   1093      1     81     85      -6.803    
   1094      1     82     85      -6.803    
   1095      1     83     85      -3.653    
   1096      1     84     85      -3.653    
   1097      1      7     86      -1.516    
   1098      1      8     86      -1.516    
   1099      1      9     86      -17.71    
   1100      1     10     86      -17.71    
   1101      1     16     86      -29.81    
   1102      1     17     86      -29.81    
   1103      1     18     86      -15.47    
   1104      1     19     86      -15.47    
   1105      1     37     86      -190.7    
   1106      1     38     86      -113.1    
   1107      1     39     86      -113.1    
   1108      1     44     86      -9.396    
   1109      1     45     86      -9.396    
   1110      1     46     86      -9.941    
   1111      1     47     86      -9.941    
   1112      1     48     86      -37.26    
   1113      1     49     86      -37.26    
   1114      1     50     86      -194.4    
   1115      1     51     86      -1.656    
   1116      1     52     86      -1.656    
   1117      1     55     86      -3.541    
   1118      1     56     86      -3.541    
   1119      1     59     86      -50.46    
   1120      1     60     86      -50.46    
   1121      1     61     86      -1.138    
   1122      1     68     86      -2.871    
   1123      1     69     86      -2.871    
   1124      1     70     86      -9.782    
   1125      1     71     86      -9.782    
   1126      1     74     86      -2.358    
   1127      1     75     86      -8.485    
   1128      1     76     86      -8.485    
   1129      1     77     86      -9.103    
   1130      1     78     86      -9.103    
   1131      1     81     86      -6.803    
   1132      1     82     86      -6.803    
   1133      1     83     86      -3.653    
   1134      1     84     86      -3.653    
   1135      1     16     87      -3.905    
   1136      1     17     87      -3.905    
   1137      1     37     87      -12.29    
   1138      1     38     87      -15.85    
   1139      1     39     87      -15.85    
   1140      1     46     87      -56.45    
   1141      1     47     87      -56.45    
   1142      1     48     87      -48.32    
   1143      1     49     87      -48.32    
   1144      1     50     87      -51.34    
   1145      1     51     87      -219.4    
   1146      1     52     87      -219.4    
   1147      1     53     87      -59.07    
   1148      1     54     87      -59.07    
   1149      1     55     87      -36.29    
   1150      1     56     87      -36.29    
   1151      1     57     87      -34.14    
   1152      1     58     87      -34.14    
   1153      1     59     87      -179.5    
   1154      1     60     87      -179.5    
   1155      1     68     87      -3.213    
   1156      1     69     87      -3.213    
   1157      1     70     87      -3.435    
   1158      1     71     87      -3.435    
   1159      1     72     87      -1.961    
   1160      1     73     87      -1.961    
   1161      1     74     87      -102.1    
   1162      1     75     87      -65.29    
   1163      1     76     87      -65.29    
   1164      1     77     87      -15.78    
   1165      1     78     87      -15.78    
   1166      1     83     87      -1.463    
   1167      1     84     87      -1.463    
   1168      1     16     88      -3.905    
   1169      1     17     88      -3.905    
   1170      1     37     88      -12.29    
   1171      1     38     88      -15.85    
   1172      1     39     88      -15.85    
   1173      1     46     88      -56.45    
   1174      1     47     88      -56.45    
   1175      1     48     88      -48.32    
   1176      1     49     88      -48.32    
   1177      1     50     88      -51.34    
   1178      1     51     88      -219.4    
   1179      1     52     88      -219.4    
   1180      1     53     88      -59.07    
   1181      1     54     88      -59.07    
   1182      1     55     88      -36.29    
   1183      1     56     88      -36.29    
   1184      1     57     88      -34.14    
   1185      1     58     88      -34.14    
   1186      1     59     88      -179.5    
   1187      1     60     88      -179.5    
   1188      1     68     88      -3.213    
   1189      1     69     88      -3.213    
   1190      1     70     88      -3.435    
   1191      1     71     88      -3.435    
   1192      1     72     88      -1.961    
   1193      1     73     88      -1.961    
   1194      1     74     88      -102.1    
   1195      1     75     88      -65.29    
   1196      1     76     88      -65.29    
   1197      1     77     88      -15.78    
   1198      1     78     88      -15.78    
   1199      1     83     88     -0.7340    
   1200      1     84     88     -0.7340    
   1201      1      9     89     -0.1469    
   1202      1     10     89     -0.1469    
   1203      1     11     89      -15.76    
   1204      1     12     89      -15.76    
   1205      1     15     89      -5.681    
   1206      1     38     89      -4.000    
   1207      1     39     89      -4.000    
   1208      1     48     89      -21.05    
   1209      1     49     89      -21.05    
   1210      1     50     89      -55.31    
   1211      1     51     89      -20.40    
   1212      1     52     89      -20.40    
   1213      1     53     89      -22.26    
   1214      1     54     89      -22.26    
   1215      1     55     89      -348.1    
   1216      1     56     89      -348.1    
   1217      1     57     89      -119.6    
   1218      1     58     89      -119.6    
   1219      1     59     89      -237.6    
   1220      1     60     89      -237.6    
   1221      1     61     89      -333.6    
   1222      1     62     89      -173.1    
   1223      1     63     89      -173.1    
   1224      1     64     89      -180.1    
   1225      1     65     89      -180.1    
   1226      1     68     89      -6.752    
   1227      1     69     89      -6.752    
   1228      1     70     89      -6.919    
   1229      1     71     89      -6.919    
   1230      1     72     89      -3.402    
   1231      1     73     89      -3.402    
   1232      1     74     89      -229.3    
   1233      1     75     89      -157.4    
   1234      1     76     89      -157.4    
   1235      1     77     89      -32.11    
   1236      1     78     89      -32.11    
   1237      1     83     89     -0.7340    
   1238      1     84     89     -0.7340    
   1239      1      9     90     -0.1469    
   1240      1     10     90     -0.1469    
   1241      1     11     90      -15.76    
   1242      1     12     90      -15.76    
   1243      1     15     90      -5.681    
   1244      1     38     90      -4.000    
   1245      1     48     90      -8.855    
   1246      1     49     90      -8.855    
   1247      1     50     90      -27.22    
   1248      1     51     90      -9.742    
   1249      1     52     90      -9.742    
   1250      1     53     90      -11.00    
   1251      1     54     90      -11.00    
   1252      1     55     90      -205.0    
   1253      1     56     90      -205.0    
   1254      1     57     90      -52.52    
   1255      1     58     90      -52.52    
   1256      1     59     90      -123.7    
   1257      1     60     90      -123.7    
   1258      1     61     90      -171.8    
   1259      1     62     90      -89.18    
   1260      1     63     90      -89.18    
   1261      1     64     90      -94.53    
   1262      1     65     90      -94.53    
   1263      1     66     90      -3.553    
   1264      1     67     90      -3.553    
   1265      1     68     90      -3.909    
   1266      1     69     90      -3.909    
   1267      1     70     90      -3.918    
   1268      1     71     90      -3.918    
   1269      1     74     90      -10.49    
   1270      1     75     90      -2.112    
   1271      1     76     90      -2.112    
   1272      1     77     90      -1.202    
   1273      1     78     90      -1.202    
   1274      1     83     90      -13.69    
   1275      1     84     90      -13.69    
   1276      1     85     90      -268.0    
   1277      1      7     91      -41.23    
   1278      1      8     91      -41.23    
   1279      1      9     91      -2.370    
   1280      1     10     91      -2.370    
   1281      1     11     91      -29.71    
   1282      1     12     91      -29.71    
   1283      1     18     91      -5.877    
   1284      1     19     91      -5.877    
   1285      1     48     91      -8.855    
   1286      1     49     91      -8.855    
   1287      1     50     91      -27.22    
   1288      1     51     91      -9.742    
   1289      1     52     91      -9.742    
   1290      1     53     91      -11.00    
   1291      1     54     91      -11.00    
   1292      1     55     91      -205.0    
   1293      1     56     91      -205.0    
   1294      1     57     91      -52.52    
   1295      1     58     91      -52.52    
   1296      1     59     91      -123.7    
   1297      1     60     91      -123.7    
   1298      1     61     91      -171.8    
   1299      1     62     91      -89.18    
   1300      1     63     91      -89.18    
   1301      1     64     91      -94.53    
   1302      1     65     91      -94.53    
   1303      1     66     91      -3.553    
   1304      1     67     91      -3.553    
   1305      1     68     91      -3.909    
   1306      1     69     91      -3.909    
   1307      1     70     91      -3.918    
   1308      1     71     91      -3.918    
   1309      1     74     91      -10.49    
   1310      1     75     91      -2.112    
   1311      1     76     91      -2.112    
   1312      1     77     91      -1.202    
   1313      1     78     91      -1.202    
   1314      1     83     91      -13.69    
   1315      1     84     91      -13.69    
   1316      1     85     91      -268.0    
   1317      1      7     92      -20.15    
   1318      1      8     92      -20.15    
   1319      1      9     92      -1.280    
   1320      1     10     92      -1.280    
   1321      1     31     92      -2.834    
   1322      1     32     92      -2.834    
   1323      1     53     92      -35.45    
   1324      1     54     92      -35.45    
   1325      1     55     92      -236.9    
   1326      1     56     92      -236.9    
   1327      1     57     92      -47.21    
   1328      1     58     92      -47.21    
   1329      1     59     92      -23.72    
   1330      1     60     92      -23.72    
   1331      1     61     92      -162.6    
   1332      1     62     92      -5.892    
   1333      1     63     92      -5.892    
   1334      1     64     92      -20.95    
   1335      1     65     92      -20.95    
   1336      1     66     92      -46.94    
   1337      1     67     92      -46.94    
   1338      1     68     92      -47.03    
   1339      1     69     92      -47.03    
   1340      1     70     92      -46.63    
   1341      1     71     92      -46.63    
   1342      1     72     92      -61.65    
   1343      1     73     92      -61.65    
   1344      1     74     92     -0.4297    
   1345      1     75     92     -0.9863    
   1346      1     76     92     -0.9863    
   1347      1     77     92      -5.638    
   1348      1     78     92      -5.638    
   1349      1     83     92      -28.56    
   1350      1     84     92      -28.56    
   1351      1     85     92      -61.05    
   1352      1      7     93      -20.15    
   1353      1      8     93      -20.15    
   1354      1      9     93      -1.280    
   1355      1     10     93      -1.280    
   1356      1     31     93      -2.834    
   1357      1     32     93      -2.834    
   1358      1     53     93      -35.45    
   1359      1     54     93      -35.45    
   1360      1     55     93      -236.9    
   1361      1     56     93      -236.9    
   1362      1     57     93      -47.21    
   1363      1     58     93      -47.21    
   1364      1     59     93      -23.72    
   1365      1     60     93      -23.72    
   1366      1     61     93      -162.6    
   1367      1     62     93      -5.892    
   1368      1     63     93      -5.892    
   1369      1     64     93      -20.95    
   1370      1     65     93      -20.95    
   1371      1     66     93      -46.94    
   1372      1     67     93      -46.94    
   1373      1     68     93      -47.03    
   1374      1     69     93      -47.03    
   1375      1     70     93      -46.63    
   1376      1     71     93      -46.63    
   1377      1     72     93      -61.65    
   1378      1     73     93      -61.65    
   1379      1     74     93     -0.4297    
   1380      1     75     93     -0.9863    
   1381      1     76     93     -0.9863    
   1382      1     77     93      -5.638    
   1383      1     78     93      -5.638    
   1384      1     83     93      -28.56    
   1385      1     84     93      -28.56    
   1386      1     85     93      -61.05    
   1387      1      7     94      -6.338    
   1388      1      8     94      -6.338    
   1389      1     15     94      -30.15    
   1390      1     16     94      -13.01    
   1391      1     17     94      -13.01    
   1392      1     29     94      -14.09    
   1393      1     30     94      -14.09    
   1394      1     39     94      -8.150    
   1395      1     55     94      -24.73    
   1396      1     56     94      -24.73    
   1397      1     57     94      -45.42    
   1398      1     58     94      -45.42    
   1399      1     62     94      -145.4    
   1400      1     63     94      -145.4    
   1401      1     64     94      -4.212    
   1402      1     65     94      -4.212    
   1403      1     66     94      -71.55    
   1404      1     67     94      -71.55    
   1405      1     68     94      -30.41    
   1406      1     69     94      -30.41    
   1407      1     70     94      -35.65    
   1408      1     71     94      -35.65    
   1409      1     72     94      -32.38    
   1410      1     73     94      -32.38    
   1411      1     74     94      -9.708    
   1412      1     75     94      -9.448    
   1413      1     76     94      -9.448    
   1414      1     83     94      -32.36    
   1415      1     84     94      -32.36    
   1416      1      7     95      -6.338    
   1417      1      8     95      -6.338    
   1418      1     15     95      -30.15    
   1419      1     16     95      -13.01    
   1420      1     17     95      -13.01    
   1421      1     29     95      -14.09    
   1422      1     30     95      -14.09    
   1423      1     39     95      -8.150    
   1424      1     55     95      -24.73    
   1425      1     56     95      -24.73    
   1426      1     57     95      -45.42    
   1427      1     58     95      -45.42    
   1428      1     63     95      -145.4    
   1429      1     64     95      -4.212    
   1430      1     65     95      -4.212    
   1431      1     66     95      -71.55    
   1432      1     67     95      -71.55    
   1433      1     68     95      -30.41    
   1434      1     69     95      -30.41    
   1435      1     70     95      -35.65    
   1436      1     71     95      -35.65    
   1437      1     72     95      -32.38    
   1438      1     73     95      -32.38    
   1439      1     74     95      -9.708    
   1440      1     75     95      -9.448    
   1441      1     76     95      -9.448    
   1442      1     83     95      -32.36    
   1443      1     84     95      -32.36    
   1444      1     15     96      -34.14    
   1445      1     20     96      -23.50    
   1446      1     21     96      -23.50    
   1447      1     22     96      -23.01    
   1448      1     23     96      -23.01    
   1449      1     24     96      -26.05    
   1450      1     25     96      -26.05    
   1451      1     29     96      -61.74    
   1452      1     30     96      -61.74    
   1453      1     55     96      -6.386    
   1454      1     56     96      -6.386    
   1455      1     57     96      -2.181    
   1456      1     58     96      -2.181    
   1457      1     63     96      -1139.    
   1458      1     64     96      -119.5    
   1459      1     65     96      -119.5    
   1460      1     66     96      -230.5    
   1461      1     67     96      -230.5    
   1462      1     68     96      -201.9    
   1463      1     69     96      -201.9    
   1464      1     70     96      -192.7    
   1465      1     71     96      -192.7    
   1466      1     72     96      -12.62    
   1467      1     73     96      -12.62    
   1468      1     74     96      -11.23    
   1469      1     75     96      -103.1    
   1470      1     76     96      -103.1    
   1471      1     81     96      -6.408    
   1472      1     82     96      -6.408    
   1473      1     83     96      -3.131    
   1474      1     84     96      -3.131    
   1475      1     85     96      -8.890    
   1476      1     86     96      -22.07    
   1477      1     87     96      -22.07    
   1478      1     15     97      -34.14    
   1479      1     20     97      -23.50    
   1480      1     21     97      -23.50    
   1481      1     22     97      -23.01    
   1482      1     23     97      -23.01    
   1483      1     24     97      -26.05    
   1484      1     25     97      -26.05    
   1485      1     29     97      -61.74    
   1486      1     30     97      -61.74    
   1487      1     63     97      -6.202    
   1488      1     64     97      -65.38    
   1489      1     65     97      -65.38    
   1490      1     66     97      -38.90    
   1491      1     67     97      -38.90    
   1492      1     68     97      -149.2    
   1493      1     69     97      -149.2    
   1494      1     70     97      -149.3    
   1495      1     71     97      -149.3    
   1496      1     72     97      -105.7    
   1497      1     73     97      -105.7    
   1498      1     74     97      -46.53    
   1499      1     75     97      -4.853    
   1500      1     76     97      -4.853    
   1501      1     81     97      -3.565    
   1502      1     82     97      -3.565    
   1503      1     83     97      -1.117    
   1504      1     84     97      -1.117    
   1505      1     85     97      -6.309    
   1506      1     86     97      -23.59    
   1507      1     87     97      -23.59    
   1508      1     13     98      -1.996    
   1509      1     14     98      -1.996    
   1510      1     15     98      -1.632    
   1511      1     24     98     -0.3150    
   1512      1     25     98     -0.3150    
   1513      1     26     98      -2.722    
   1514      1     35     98      -1.438    
   1515      1     36     98      -1.438    
   1516      1     63     98      -6.202    
   1517      1     64     98      -65.38    
   1518      1     65     98      -65.38    
   1519      1     66     98      -38.90    
   1520      1     67     98      -38.90    
   1521      1     68     98      -149.2    
   1522      1     69     98      -149.2    
   1523      1     70     98      -149.3    
   1524      1     71     98      -149.3    
   1525      1     72     98      -105.7    
   1526      1     73     98      -105.7    
   1527      1     74     98      -46.53    
   1528      1     75     98      -4.853    
   1529      1     76     98      -4.853    
   1530      1     81     98      -3.565    
   1531      1     82     98      -3.565    
   1532      1     83     98      -1.117    
   1533      1     84     98      -1.117    
   1534      1     85     98      -6.309    
   1535      1     86     98      -23.59    
   1536      1     87     98      -23.59    
   1537      1     15     99      -127.1    
   1538      1     24     99      -6.182    
   1539      1     25     99      -6.182    
   1540      1     26     99      -8.462    
   1541      1     53     99      -84.29    
   1542      1     54     99      -84.29    
   1543      1     55     99      -2.416    
   1544      1     56     99      -2.416    
   1545      1     64     99      -25.68    
   1546      1     65     99      -25.68    
   1547      1     66     99      -20.31    
   1548      1     67     99      -20.31    
   1549      1     68     99      -6.185    
   1550      1     69     99      -6.185    
   1551      1     70     99      -5.978    
   1552      1     71     99      -5.978    
   1553      1     72     99      -72.66    
   1554      1     73     99      -72.66    
   1555      1     74     99      -115.4    
   1556      1     75     99      -71.23    
   1557      1     76     99      -71.23    
   1558      1     77     99      -46.10    
   1559      1     78     99      -46.10    
   1560      1     79     99      -11.60    
   1561      1     80     99      -11.60    
   1562      1     81     99      -15.49    
   1563      1     82     99      -15.49    
   1564      1     83     99      -49.29    
   1565      1     84     99      -49.29    
   1566      1     85     99      -22.47    
   1567      1     88     99      -14.75    
   1568      1     89     99      -14.75    
   1569      1     92     99      -25.00    
   1570      1     93     99      -25.00    
   1571      1     15    100      -127.1    
   1572      1     24    100      -6.182    
   1573      1     25    100      -6.182    
   1574      1     26    100      -8.462    
   1575      1     53    100      -84.29    
   1576      1     54    100      -84.29    
   1577      1     55    100      -2.416    
   1578      1     56    100      -2.416    
   1579      1     64    100      -25.68    
   1580      1     65    100      -25.68    
   1581      1     66    100      -20.31    
   1582      1     67    100      -20.31    
   1583      1     68    100      -6.185    
   1584      1     69    100      -6.185    
   1585      1     70    100      -5.978    
   1586      1     71    100      -5.978    
   1587      1     72    100      -72.66    
   1588      1     73    100      -72.66    
   1589      1     74    100      -115.4    
   1590      1     75    100      -71.23    
   1591      1     76    100      -71.23    
   1592      1     77    100      -46.10    
   1593      1     78    100      -46.10    
   1594      1     79    100      -11.60    
   1595      1     80    100      -11.60    
   1596      1     81    100      -15.49    
   1597      1     82    100      -15.49    
   1598      1     83    100      -49.29    
   1599      1     84    100      -49.29    
   1600      1     85    100      -22.47    
   1601      1     86    100      -22.47    
   1602      1     88    100      -14.75    
   1603      1     89    100      -14.75    
   1604      1     92    100      -25.00    
   1605      1     93    100      -25.00    
   1606      1      7    101      -66.35    
   1607      1      8    101      -66.35    
   1608      1      9    101      -16.55    
   1609      1     10    101      -16.55    
   1610      1     11    101      -3.478    
   1611      1     12    101      -3.478    
   1612      1     13    101      -16.90    
   1613      1     14    101      -16.90    
   1614      1     16    101      -24.41    
   1615      1     17    101      -24.41    
[...]
   9127      1    108    258      0.1114E-17
   9128      1    108    259      0.1114E-17
   9129      1    108    260      0.1114E-17
   9130      1    108    261      0.1114E-17
   9131      1    109    241      0.1114E-17
   9132      1    109    242      0.1114E-17
   9133      1    109    243      0.1114E-17
   9134      1    109    245      0.1114E-17
   9135      1    109    247      0.1114E-17
   9136      1    109    250      0.1114E-17
   9137      1    109    252      0.1114E-17
   9138      1    109    255      0.1114E-17
   9139      1    109    258      0.1114E-17
   9140      1    109    259      0.1114E-17
   9141      1    109    260      0.1114E-17
   9142      1    109    294      0.1114E-17
   9143      1    109    339      0.1114E-17
   9144      1    110    244      0.1114E-17
   9145      1    110    245      0.1114E-17
   9146      1    110    246      0.1114E-17
   9147      1    110    249      0.1114E-17
   9148      1    110    252      0.1114E-17
   9149      1    110    255      0.1114E-17
   9150      1    110    257      0.1114E-17
   9151      1    110    295      0.1114E-17
   9152      1    110    332      0.1114E-17
   9153      1    110    333      0.1114E-17
   9154      1    110    338      0.1114E-17
   9155      1    111    246      0.1114E-17
   9156      1    111    249      0.1114E-17
   9157      1    111    252      0.1114E-17
   9158      1    111    254      0.1114E-17
   9159      1    111    256      0.1114E-17
   9160      1    111    271      0.1114E-17
   9161      1    111    285      0.1114E-17
   9162      1    111    286      0.1114E-17
   9163      1    111    295      0.1114E-17
   9164      1    111    332      0.1114E-17
   9165      1    111    338      0.1114E-17
   9166      1    112    247      0.1114E-17
   9167      1    112    249      0.1114E-17
   9168      1    112    251      0.1114E-17
   9169      1    112    252      0.1114E-17
   9170      1    112    253      0.1114E-17
   9171      1    112    254      0.1114E-17
   9172      1    112    255      0.1114E-17
   9173      1    112    271      0.1114E-17
   9174      1    112    284      0.1114E-17
   9175      1    112    285      0.1114E-17
   9176      1    112    295      0.1114E-17
   9177      1    112    333      0.1114E-17
   9178      1    113    248      0.1114E-17
   9179      1    113    249      0.1114E-17
   9180      1    113    250      0.1114E-17
   9181      1    113    255      0.1114E-17
   9182      1    113    270      0.1114E-17
   9183      1    113    277      0.1114E-17
   9184      1    113    278      0.1114E-17
   9185      1    113    283      0.1114E-17
   9186      1    113    295      0.1114E-17
   9187      1    113    298      0.1114E-17
   9188      1    113    299      0.1114E-17
   9189      1    113    322      0.1114E-17
   9190      1    113    332      0.1114E-17
   9191      1    114    254      0.1114E-17
   9192      1    114    262      0.1114E-17
   9193      1    114    263      0.1114E-17
   9194      1    114    269      0.1114E-17
   9195      1    114    270      0.1114E-17
   9196      1    114    276      0.1114E-17
   9197      1    114    283      0.1114E-17
   9198      1    114    291      0.1114E-17
   9199      1    114    296      0.1114E-17
   9200      1    114    297      0.1114E-17
   9201      1    114    298      0.1114E-17
   9202      1    114    323      0.1114E-17
   9203      1    114    333      0.1114E-17
   9204      1    115    254      0.1114E-17
   9205      1    115    261      0.1114E-17
   9206      1    115    270      0.1114E-17
   9207      1    115    275      0.1114E-17
   9208      1    115    276      0.1114E-17
   9209      1    115    283      0.1114E-17
   9210      1    115    291      0.1114E-17
   9211      1    115    297      0.1114E-17
   9212      1    115    298      0.1114E-17
   9213      1    115    304      0.1114E-17
   9214      1    115    306      0.1114E-17
   9215      1    115    323      0.1114E-17
   9216      1    115    324      0.1114E-17
   9217      1    115    333      0.1114E-17
   9218      1    116    254      0.1114E-17
   9219      1    116    255      0.1114E-17
   9220      1    116    260      0.1114E-17
   9221      1    116    261      0.1114E-17
   9222      1    116    270      0.1114E-17
   9223      1    116    271      0.1114E-17
   9224      1    116    272      0.1114E-17
   9225      1    116    273      0.1114E-17
   9226      1    116    274      0.1114E-17
   9227      1    116    283      0.1114E-17
   9228      1    116    291      0.1114E-17
   9229      1    116    298      0.1114E-17
   9230      1    116    299      0.1114E-17
   9231      1    116    304      0.1114E-17
   9232      1    116    306      0.1114E-17
   9233      1    116    325      0.1114E-17
   9234      1    116    326      0.1114E-17
   9235      1    117    255      0.1114E-17
   9236      1    117    256      0.1114E-17
   9237      1    117    257      0.1114E-17
   9238      1    117    258      0.1114E-17
   9239      1    117    259      0.1114E-17
   9240      1    117    267      0.1114E-17
   9241      1    117    268      0.1114E-17
   9242      1    117    269      0.1114E-17
   9243      1    117    282      0.1114E-17
   9244      1    117    291      0.1114E-17
   9245      1    117    299      0.1114E-17
   9246      1    117    305      0.1114E-17
   9247      1    117    306      0.1114E-17
   9248      1    117    312      0.1114E-17
   9249      1    117    313      0.1114E-17
   9250      1    117    327      0.1114E-17
   9251      1    118    256      0.1114E-17
   9252      1    118    258      0.1114E-17
   9253      1    118    267      0.1114E-17
   9254      1    118    281      0.1114E-17
   9255      1    118    282      0.1114E-17
   9256      1    118    291      0.1114E-17
   9257      1    118    298      0.1114E-17
   9258      1    118    305      0.1114E-17
   9259      1    118    312      0.1114E-17
   9260      1    118    323      0.1114E-17
   9261      1    118    327      0.1114E-17
   9262      1    119    256      0.1114E-17
   9263      1    119    257      0.1114E-17
   9264      1    119    267      0.1114E-17
   9265      1    119    281      0.1114E-17
   9266      1    119    291      0.1114E-17
   9267      1    119    298      0.1114E-17
   9268      1    119    305      0.1114E-17
   9269      1    119    312      0.1114E-17
   9270      1    119    324      0.1114E-17
   9271      1    119    327      0.1114E-17
   9272      1    120    257      0.1114E-17
   9273      1    120    260      0.1114E-17
   9274      1    120    261      0.1114E-17
   9275      1    120    262      0.1114E-17
   9276      1    120    266      0.1114E-17
   9277      1    120    267      0.1114E-17
   9278      1    120    280      0.1114E-17
   9279      1    120    291      0.1114E-17
   9280      1    120    298      0.1114E-17
   9281      1    120    300      0.1114E-17
   9282      1    120    306      0.1114E-17
   9283      1    120    312      0.1114E-17
   9284      1    120    325      0.1114E-17
   9285      1    120    326      0.1114E-17
   9286      1    120    327      0.1114E-17
   9287      1    121    257      0.1114E-17
   9288      1    121    258      0.1114E-17
   9289      1    121    259      0.1114E-17
   9290      1    121    263      0.1114E-17
   9291      1    121    264      0.1114E-17
   9292      1    121    266      0.1114E-17
   9293      1    121    270      0.1114E-17
   9294      1    121    280      0.1114E-17
   9295      1    121    291      0.1114E-17
   9296      1    121    298      0.1114E-17
   9297      1    121    299      0.1114E-17
   9298      1    121    300      0.1114E-17
   9299      1    121    305      0.1114E-17
   9300      1    121    311      0.1114E-17
   9301      1    121    312      0.1114E-17
   9302      1    121    326      0.1114E-17
   9303      1    121    327      0.1114E-17
   9304      1    122    263      0.1114E-17
   9305      1    122    265      0.1114E-17
   9306      1    122    271      0.1114E-17
   9307      1    122    272      0.1114E-17
   9308      1    122    278      0.1114E-17
   9309      1    122    279      0.1114E-17
   9310      1    122    291      0.1114E-17
   9311      1    122    298      0.1114E-17
   9312      1    122    305      0.1114E-17
   9313      1    122    311      0.1114E-17
   9314      1    123    263      0.1114E-17
   9315      1    123    273      0.1114E-17
   9316      1    123    278      0.1114E-17
   9317      1    123    291      0.1114E-17
   9318      1    123    295      0.1114E-17
   9319      1    123    299      0.1114E-17
   9320      1    123    305      0.1114E-17
   9321      1    123    310      0.1114E-17
   9322      1    123    326      0.1114E-17
   9323      1    124    264      0.1114E-17
   9324      1    124    272      0.1114E-17
   9325      1    124    274      0.1114E-17
   9326      1    124    278      0.1114E-17
   9327      1    124    291      0.1114E-17
   9328      1    124    295      0.1114E-17
   9329      1    124    300      0.1114E-17
   9330      1    124    304      0.1114E-17
   9331      1    124    310      0.1114E-17
   9332      1    124    326      0.1114E-17
   9333      1    125    265      0.1114E-17
   9334      1    125    267      0.1114E-17
   9335      1    125    268      0.1114E-17
   9336      1    125    271      0.1114E-17
   9337      1    125    274      0.1114E-17
   9338      1    125    277      0.1114E-17
   9339      1    125    291      0.1114E-17
   9340      1    125    295      0.1114E-17
   9341      1    125    300      0.1114E-17
   9342      1    125    301      0.1114E-17
   9343      1    125    302      0.1114E-17
   9344      1    125    303      0.1114E-17
   9345      1    125    304      0.1114E-17
   9346      1    125    310      0.1114E-17
   9347      1    125    325      0.1114E-17
   9348      1    126    266      0.1114E-17
   9349      1    126    267      0.1114E-17
   9350      1    126    271      0.1114E-17
   9351      1    126    274      0.1114E-17
   9352      1    126    277      0.1114E-17
   9353      1    126    291      0.1114E-17
   9354      1    126    295      0.1114E-17
   9355      1    126    300      0.1114E-17
   9356      1    126    310      0.1114E-17
   9357      1    126    312      0.1114E-17
   9358      1    127    267      0.1114E-17
   9359      1    127    271      0.1114E-17
   9360      1    127    273      0.1114E-17
   9361      1    127    277      0.1114E-17
   9362      1    127    286      0.1114E-17
   9363      1    127    290      0.1114E-17
   9364      1    127    294      0.1114E-17
   9365      1    127    299      0.1114E-17
   9366      1    127    310      0.1114E-17
   9367      1    127    311      0.1114E-17
   9368      1    127    324      0.1114E-17
   9369      1    128    267      0.1114E-17
   9370      1    128    270      0.1114E-17
   9371      1    128    271      0.1114E-17
   9372      1    128    273      0.1114E-17
   9373      1    128    276      0.1114E-17
   9374      1    128    286      0.1114E-17
   9375      1    128    287      0.1114E-17
   9376      1    128    288      0.1114E-17
   9377      1    128    290      0.1114E-17
   9378      1    128    294      0.1114E-17
   9379      1    128    299      0.1114E-17
   9380      1    128    303      0.1114E-17
   9381      1    128    309      0.1114E-17
   9382      1    128    310      0.1114E-17
   9383      1    128    311      0.1114E-17
   9384      1    128    323      0.1114E-17
   9385      1    129    268      0.1114E-17
   9386      1    129    269      0.1114E-17
   9387      1    129    271      0.1114E-17
   9388      1    129    272      0.1114E-17
   9389      1    129    273      0.1114E-17
   9390      1    129    276      0.1114E-17
   9391      1    129    277      0.1114E-17
   9392      1    129    289      0.1114E-17
   9393      1    129    290      0.1114E-17
   9394      1    129    293      0.1114E-17
   9395      1    129    299      0.1114E-17
   9396      1    129    300      0.1114E-17
   9397      1    129    301      0.1114E-17
   9398      1    129    302      0.1114E-17
   9399      1    129    305      0.1114E-17
   9400      1    129    307      0.1114E-17
   9401      1    129    308      0.1114E-17
   9402      1    129    311      0.1114E-17
   9403      1    130    273      0.1114E-17
   9404      1    130    274      0.1114E-17
   9405      1    130    276      0.1114E-17
   9406      1    130    277      0.1114E-17
   9407      1    130    288      0.1114E-17
   9408      1    130    289      0.1114E-17
   9409      1    130    290      0.1114E-17
   9410      1    130    291      0.1114E-17
   9411      1    130    292      0.1114E-17
   9412      1    130    299      0.1114E-17
   9413      1    130    303      0.1114E-17
   9414      1    130    304      0.1114E-17
   9415      1    130    305      0.1114E-17
   9416      1    130    306      0.1114E-17
   9417      1    130    310      0.1114E-17
   9418      1    131    274      0.1114E-17
   9419      1    131    277      0.1114E-17
   9420      1    131    287      0.1114E-17
   9421      1    131    289      0.1114E-17
   9422      1    131    292      0.1114E-17
   9423      1    131    293      0.1114E-17
   9424      1    131    294      0.1114E-17
   9425      1    131    299      0.1114E-17
   9426      1    131    303      0.1114E-17
   9427      1    131    310      0.1114E-17
   9428      1    132    274      0.1114E-17
   9429      1    132    276      0.1114E-17
   9430      1    132    283      0.1114E-17
   9431      1    132    288      0.1114E-17
   9432      1    132    295      0.1114E-17
   9433      1    132    296      0.1114E-17
   9434      1    132    297      0.1114E-17
   9435      1    132    299      0.1114E-17
   9436      1    132    301      0.1114E-17
   9437      1    132    302      0.1114E-17
   9438      1    132    310      0.1114E-17
   9439      1    133    275      0.1114E-17
   9440      1    133    276      0.1114E-17
   9441      1    133    283      0.1114E-17
   9442      1    133    288      0.1114E-17
   9443      1    133    297      0.1114E-17
   9444      1    133    298      0.1114E-17
   9445      1    133    300      0.1114E-17
   9446      1    133    301      0.1114E-17
   9447      1    133    304      0.1114E-17
   9448      1    133    310      0.1114E-17
   9449      1    133    317      0.1114E-17
   9450      1    134    275      0.1114E-17
   9451      1    134    276      0.1114E-17
   9452      1    134    284      0.1114E-17
   9453      1    134    289      0.1114E-17
   9454      1    134    299      0.1114E-17
   9455      1    134    300      0.1114E-17
   9456      1    134    304      0.1114E-17
   9457      1    134    310      0.1114E-17
   9458      1    134    315      0.1114E-17
   9459      1    134    316      0.1114E-17
   9460      1    135    277      0.1114E-17
   9461      1    135    278      0.1114E-17
   9462      1    135    284      0.1114E-17
   9463      1    135    288      0.1114E-17
   9464      1    135    301      0.1114E-17
   9465      1    135    302      0.1114E-17
   9466      1    135    303      0.1114E-17
   9467      1    135    305      0.1114E-17
   9468      1    135    310      0.1114E-17
   9469      1    135    313      0.1114E-17
   9470      1    135    314      0.1114E-17
   9471      1    136    279      0.1114E-17
   9472      1    136    282      0.1114E-17
   9473      1    136    285      0.1114E-17
   9474      1    136    286      0.1114E-17
   9475      1    136    287      0.1114E-17
   9476      1    136    301      0.1114E-17
   9477      1    136    304      0.1114E-17
   9478      1    136    308      0.1114E-17
   9479      1    136    309      0.1114E-17
   9480      1    136    310      0.1114E-17
   9481      1    136    312      0.1114E-17
   9482      1    137    280      0.1114E-17
   9483      1    137    282      0.1114E-17
   9484      1    137    285      0.1114E-17
   9485      1    137    302      0.1114E-17
   9486      1    137    303      0.1114E-17
   9487      1    137    306      0.1114E-17
   9488      1    137    307      0.1114E-17
   9489      1    137    309      0.1114E-17
   9490      1    137    311      0.1114E-17
   9491      1    138    281      0.1114E-17
   9492      1    138    282      0.1114E-17
   9493      1    138    284      0.1114E-17
   9494      1    138    302      0.1114E-17
   9495      1    138    307      0.1114E-17
   9496      1    139    282      0.1114E-17
   9497      1    139    283      0.1114E-17
   9498      1    139    284      0.1114E-17
   9499      1    139    302      0.1114E-17
   9500      1    139    303      0.1114E-17
   9501      1    139    305      0.1114E-17
   9502      1    139    306      0.1114E-17
   9503      1    140    302      0.1114E-17
   9504      1    140    303      0.1114E-17
   9505      1    140    304      0.1114E-17
   9506      1    140    305      0.1114E-17
   9507      1    140    306      0.1114E-17
   9508      1    140    307      0.1114E-17
   9509      1    141    302      0.1114E-17

   9509 WELLS

  54036 DRAINS



                           RECHARGE
 READING ON UNIT   19 WITH FORMAT: (342E15.6)          
 
 SOLVING FOR HEAD 

    ------------------------------------------------
       NWT REQUIRED            5 OUTER ITERATIONS 
       AND A TOTAL OF          8 INNER ITERATIONS.
    ------------------------------------------------

 OUTPUT CONTROL FOR STRESS PERIOD    1   TIME STEP    1
    SAVE HEAD FOR ALL LAYERS

 HEAD WILL BE SAVED ON UNIT   51 AT END OF TIME STEP    1, STRESS PERIOD    1
1
  VOLUMETRIC BUDGET FOR ENTIRE MODEL AT END OF TIME STEP    1, STRESS PERIOD   1
  ------------------------------------------------------------------------------

     CUMULATIVE VOLUMES      L**3       RATES FOR THIS TIME STEP      L**3/T
     ------------------                 ------------------------

           IN:                                      IN:
           ---                                      ---
             STORAGE =     1780421.3750               STORAGE =     1780421.3750
       CONSTANT HEAD =           0.0000         CONSTANT HEAD =           0.0000
               WELLS =       1.7694E-15                 WELLS =       1.7694E-15
              DRAINS =           0.0000                DRAINS =           0.0000
            RECHARGE =      965654.8750              RECHARGE =      965654.8750

            TOTAL IN =     2746076.2500              TOTAL IN =     2746076.2500

          OUT:                                     OUT:
          ----                                     ----
             STORAGE =       41153.7266               STORAGE =       41153.7266
       CONSTANT HEAD =           0.0000         CONSTANT HEAD =           0.0000
               WELLS =      290250.5938                 WELLS =      290250.5938
              DRAINS =     2419514.2500                DRAINS =     2419514.2500
            RECHARGE =           0.0000              RECHARGE =           0.0000

           TOTAL OUT =     2750918.5000             TOTAL OUT =     2750918.5000

            IN - OUT =       -4842.2500              IN - OUT =       -4842.2500

 PERCENT DISCREPANCY =          -0.18     PERCENT DISCREPANCY =          -0.18






         TIME SUMMARY AT END OF TIME STEP    1 IN STRESS PERIOD    1
                    SECONDS     MINUTES      HOURS       DAYS        YEARS
                    -----------------------------------------------------------
   TIME STEP LENGTH  86400.      1440.0      24.000      1.0000     2.73785E-03
 STRESS PERIOD TIME  86400.      1440.0      24.000      1.0000     2.73785E-03
         TOTAL TIME  86400.      1440.0      24.000      1.0000     2.73785E-03
1

 Run end date and time (yyyy/mm/dd hh:mm:ss): 2020/08/04  0:41:14
 Elapsed run time:  0.363 Seconds

