                                  MODFLOW-NWT-SWR1 
      U.S. GEOLOGICAL SURVEY MODULAR FINITE-DIFFERENCE GROUNDWATER-FLOW MODEL
                             VERSION 1.1.4 4/01/2018
                    BASED ON MODFLOW-2005 VERSION 1.12.00 02/03/2017

 LIST FILE: C:/GitHub/FUSE/Modflow/output/Bhima_transient.list
                         UNIT    2

 OPENING C:/GitHub/FUSE/Modflow/output/Bhima_transient.dis
 FILE TYPE:DIS   UNIT   11   STATUS:OLD    
 FORMAT:FORMATTED              ACCESS:SEQUENTIAL          

 OPENING C:/GitHub/FUSE/Modflow/output/Bhima_transient.bas
 FILE TYPE:BAS6   UNIT   13   STATUS:OLD    
 FORMAT:FORMATTED              ACCESS:SEQUENTIAL          

 OPENING C:/GitHub/FUSE/Modflow/output/Bhima_transient.upw
 FILE TYPE:UPW   UNIT   31   STATUS:OLD    
 FORMAT:FORMATTED              ACCESS:SEQUENTIAL          

 OPENING C:/GitHub/FUSE/Modflow/output/Bhima_transient.nwt
 FILE TYPE:NWT   UNIT   32   STATUS:OLD    
 FORMAT:FORMATTED              ACCESS:SEQUENTIAL          

 OPENING C:/GitHub/FUSE/Modflow/output/Bhima_transient.drn
 FILE TYPE:DRN   UNIT   21   STATUS:OLD    
 FORMAT:FORMATTED              ACCESS:SEQUENTIAL          

 OPENING C:/GitHub/FUSE/Modflow/output/Bhima_transient.wel
 FILE TYPE:WEL   UNIT   20   STATUS:OLD    
 FORMAT:FORMATTED              ACCESS:SEQUENTIAL          

 OPENING C:/GitHub/FUSE/Modflow/output/Bhima_transient.rch
 FILE TYPE:RCH   UNIT   19   STATUS:OLD    
 FORMAT:FORMATTED              ACCESS:SEQUENTIAL          

 OPENING C:/GitHub/FUSE/Modflow/output/Bhima_transient.oc
 FILE TYPE:OC   UNIT   14   STATUS:OLD    
 FORMAT:FORMATTED              ACCESS:SEQUENTIAL          

 OPENING C:/GitHub/FUSE/Modflow/output/Bhima_transient.hds
 FILE TYPE:DATA(BINARY)   UNIT   51   STATUS:REPLACE
 FORMAT:BINARY                 ACCESS:SEQUENTIAL          

 OPENING C:/GitHub/FUSE/Modflow/output/Bhima_transient.out
 FILE TYPE:DATA   UNIT   50   STATUS:UNKNOWN
 FORMAT:FORMATTED              ACCESS:SEQUENTIAL          

 BAS -- BASIC PACKAGE, VERSION 1.1.4, 4/01/2018 INPUT READ FROM UNIT   13
 
 MODFLOW was compiled using mixed precision
 Precision of REAL variables:           6
 Precision of DOUBLE PRECISION variables:          15

 DISCRETIZATION INPUT DATA READ FROM UNIT   11
 # DIS package for  MODFLOW-NWT, generated by Flopy.
    1 LAYERS       158 ROWS       342 COLUMNS
    1 STRESS PERIOD(S) IN SIMULATION
 MODEL TIME UNIT IS DAYS
 MODEL LENGTH UNIT IS METERS
  Confining bed flag for each layer:
   0

                     DELR =   500.000    

                     DELC =   500.000    



           TOP ELEVATION OF LAYER 1
 READING ON UNIT   11 WITH FORMAT: (342E15.6)          



             MODEL LAYER BOTTOM EL. FOR LAYER   1
 READING ON UNIT   11 WITH FORMAT: (342E15.6)          


 STRESS PERIOD     LENGTH       TIME STEPS     MULTIPLIER FOR DELT    SS FLAG
 ----------------------------------------------------------------------------
        1         1.000000          1                    1.000         TR

 TRANSIENT SIMULATION



 
 # BAS6 package for  MODFLOW-NWT, generated by Flopy.                            
 THE FREE FORMAT OPTION HAS BEEN SELECTED



                     BOUNDARY ARRAY FOR LAYER   1
 READING ON UNIT   13 WITH FORMAT: (342I10)            

 AQUIFER HEAD WILL BE SET TO  -999.99     AT ALL NO-FLOW NODES (IBOUND=0).



                       INITIAL HEAD FOR LAYER   1
 READING ON UNIT   13 WITH FORMAT: (342E15.6)          
 # OC package for  MODFLOW-NWT, generated by Flopy.

 OUTPUT CONTROL IS SPECIFIED ONLY AT TIME STEPS FOR WHICH OUTPUT IS DESIRED
 COMPACT CELL-BY-CELL BUDGET FILES WILL BE WRITTEN
 AUXILIARY DATA WILL BE SAVED IN CELL-BY-CELL BUDGET FILES
 HEAD PRINT FORMAT CODE IS   0    DRAWDOWN PRINT FORMAT CODE IS   0
 HEADS WILL BE SAVED ON UNIT   51    DRAWDOWNS WILL BE SAVED ON UNIT    0
 # NWT package for  MODFLOW-NWT, generated by Flopy.

 NWT1 -- Newton Solver, VERSION 1.1.4, 4/01/2018
         INPUT READ FROM UNIT 32

 SIMPLE OPTION:
 DEFAULT SOLVER INPUT VALUES REFLECT NEARLY LINEAR MODEL
 ***GMRES linear solver will be used***
 
   CONVERGENCE CRITERION OF   0.100000E-01 FOR HEAD SOLUTION
   AND A TOLERANCE OF   0.500000E+03 FOR FLOW SOLUTION AND 
   A MAXIMUM OF   100 OUTER ITERATIONS. 


   D-B-D REDUCTION FACTOR OF    0.970000E+00 AND 
   A D-B-D INCREASE FACTOR OF    0.100000E-03 AND 
   A D-B-D RELAXATION OF    0.000000E+00 AND 
   A MOMENTUM FACTOR OF    0.000000E+00 .


 ***BACKTRACKING IS INACTIVE***
 GMRES -- LINEAR SOLUTION BY GMRES PACKAGE 
     adapted for HYDROTHERM by Kipp and others (2008)
     using software originally developed by Saad (1990) 32
     using algorithms described in Saad (2003)

 UPW1 -- UPSTREAM WEIGHTING FLOW PACKAGE, VERSION 1.1.4, 4/01/2018
         INPUT READ FROM UNIT 31

 # UPW package for  MODFLOW-NWT, generated by Flopy.
 No named parameters

   LAYER FLAGS:
 LAYER       LAYTYP          LAYAVG    CHANI           LAYVKA           LAYWET
 ---------------------------------------------------------------------------
    1             1             0     1.000E+00             1             0

   INTERPRETATION OF LAYER FLAGS:
                        INTERBLOCK     HORIZONTAL    DATA IN
         LAYER TYPE   TRANSMISSIVITY   ANISOTROPY   ARRAY VKA   WETTABILITY
 LAYER   (LAYTYP)        (LAYAVG)      (CHANI)     (LAYVKA)       (LAYWET)
 ---------------------------------------------------------------------------
    1   CONVERTIBLE      HARMONIC     1.000E+00    ANISOTROPY  NON-WETTABLE



              HYD. COND. ALONG ROWS FOR LAYER   1
 READING ON UNIT   31 WITH FORMAT: (342E15.6)          

  HORIZ. TO VERTICAL ANI. =   5.00000     FOR LAYER   1



                   SPECIFIC STORAGE FOR LAYER   1
 READING ON UNIT   31 WITH FORMAT: (342E15.6)          



                     SPECIFIC YIELD FOR LAYER   1
 READING ON UNIT   31 WITH FORMAT: (342E15.6)          

 WEL -- WELL PACKAGE FOR NWT VERSION 1.1.4,  4/01/2018 INPUT READ FROM UNIT   20
 # WEL package for  MODFLOW-NWT, generated by Flopy.
 No named parameters
 MAXIMUM OF  10321 ACTIVE WELLS AT ONE TIME
 No named parameters
 
 NEGATIVE PUMPING RATES WILL BE REDUCED IF HEAD 
 FALLS WITHIN THE INTERVAL PHIRAMP TIMES THE CELL 
 THICKNESS. THE VALUE SPECIFIED FOR PHIRAMP IS  0.10000E+00
 WELLS WITH REDUCED PUMPING WILL BE REPORTED TO FILE UNIT NUMBER   50


     0 Well parameters

 DRN -- DRAIN PACKAGE, VERSION 7, 5/2/2005 INPUT READ FROM UNIT   21
 # DRN package for  MODFLOW-NWT, generated by Flopy.
 No named parameters
 MAXIMUM OF  54036 ACTIVE DRAINS AT ONE TIME
 LISTS OF DRAIN CELLS WILL NOT BE PRINTED


     0 Drain parameters

 RCH -- RECHARGE PACKAGE, VERSION 7, 5/2/2005 INPUT READ FROM UNIT   19
 # RCH package for  MODFLOW-NWT, generated by Flopy.
 No named parameters
 OPTION 3 -- RECHARGE TO HIGHEST ACTIVE NODE IN EACH VERTICAL COLUMN


     0 Recharge parameters
1
                            STRESS PERIOD NO.    1, LENGTH =   1.000000    
                            -----------------------------------------------

                              NUMBER OF TIME STEPS =     1

                               MULTIPLIER FOR DELT =     1.000

                            INITIAL TIME STEP SIZE =   1.000000    

 WELL NO.  LAYER   ROW   COL   STRESS RATE         
 --------------------------------------------------
      1      1     29      2      -2.116    
      2      1     30      2      -2.116    
      3      1     31      2      -4.232    
      4      1     29      3      -2.116    
      5      1     30      3      -2.116    
      6      1     31      3      -4.232    
      7      1     29      4      -2.116    
      8      1     30      4      -2.116    
      9      1     32      4     -0.2116    
     10      1     33      4     -0.2116    
     11      1     34      4      -2.116    
     12      1     35      4      -2.116    
     13      1     43      4      -2.602    
     14      1     44      4      -2.602    
     15      1     45      4      -65.78    
     16      1     46      4      -65.78    
     17      1     29      5      -2.116    
     18      1     30      5      -2.116    
     19      1     32      5     -0.2116    
     20      1     33      5     -0.2116    
     21      1     34      5      -2.116    
     22      1     35      5      -2.116    
     23      1     43      5      -2.602    
     24      1     44      5      -2.602    
     25      1     45      5      -65.78    
     26      1     46      5      -65.78    
     27      1     29      6      -2.116    
     28      1     30      6      -2.116    
     29      1     32      6      -2.116    
     30      1     33      6      -2.116    
     31      1     34      6      -2.116    
     32      1     35      6      -2.116    
     33      1     36      6     -0.2116    
     34      1     37      6     -0.2116    
     35      1     40      6      -2.602    
     36      1     41      6      -2.602    
     37      1     42      6      -5.204    
     38      1     45      6     -0.2602    
     39      1     46      6     -0.2602    
     40      1     29      7      -2.116    
     41      1     30      7      -2.116    
     42      1     32      7      -2.116    
     43      1     33      7      -2.116    
     44      1     34      7      -2.116    
     45      1     35      7      -2.116    
     46      1     36      7     -0.2116    
     47      1     37      7     -0.2116    
     48      1     40      7      -2.602    
     49      1     41      7      -2.602    
     50      1     42      7      -5.204    
     51      1     45      7     -0.2602    
     52      1     46      7     -0.2602    
     53      1     27      8      -2.116    
     54      1     28      8      -2.116    
     55      1     29      8      -2.116    
     56      1     30      8      -2.116    
     57      1     32      8      -4.232    
     58      1     33      8      -4.232    
     59      1     34      8      -4.232    
     60      1     35      8      -4.232    
     61      1     36      8      -4.232    
     62      1     37      8      -4.232    
     63      1     40      8     -0.4883    
     64      1     41      8     -0.4883    
     65      1     42      8      -10.41    
     66      1     43      8     -0.5204    
     67      1     44      8     -0.5204    
     68      1     27      9      -2.116    
     69      1     28      9      -2.116    
     70      1     29      9      -2.116    
     71      1     30      9      -2.116    
     72      1     32      9      -2.116    
     73      1     33      9      -2.116    
     74      1     34      9      -2.116    
     75      1     35      9      -2.116    
     76      1     36      9     -0.2116    
     77      1     37      9     -0.2116    
     78      1     38      9      -2.116    
     79      1     39      9      -2.116    
     80      1     42      9      -5.204    
     81      1     43      9      -2.602    
     82      1     44      9      -2.602    
     83      1     25     10      -4.231    
     84      1     26     10      -4.231    
     85      1     32     10      -2.116    
     86      1     33     10      -2.116    
     87      1     34     10      -2.116    
     88      1     35     10      -2.116    
     89      1     36     10     -0.2116    
     90      1     37     10     -0.2116    
     91      1     38     10      -2.116    
     92      1     39     10      -2.116    
     93      1     42     10      -5.204    
     94      1     43     10      -2.602    
     95      1     44     10      -2.602    
     96      1     25     11      -2.116    
     97      1     26     11      -2.116    
     98      1     27     11      -2.116    
     99      1     28     11      -2.116    
    100      1     32     11     -0.2116    
    101      1     33     11     -0.2116    
    102      1     34     11      -2.116    
    103      1     35     11      -2.116    
    104      1     43     11     -0.2870    
    105      1     44     11     -0.2870    
    106      1     45     11      -2.602    
    107      1     46     11      -2.602    
    108      1     25     12      -2.116    
    109      1     26     12      -2.116    
    110      1     27     12      -2.116    
    111      1     28     12      -2.116    
    112      1     32     12     -0.2116    
    113      1     33     12     -0.2116    
    114      1     34     12      -2.116    
    115      1     35     12      -2.116    
    116      1     44     12     -0.2870    
    117      1     45     12      -2.602    
    118      1     46     12      -2.602    
    119      1     23     13      -5.710    
    120      1     24     13      -5.710    
    121      1     25     13     -0.5710    
    122      1     26     13     -0.5710    
    123      1     27     13      -5.710    
    124      1     28     13      -5.710    
    125      1     31     13     -0.9307    
    126      1     32     13      -5.711    
    127      1     33     13      -5.711    
    128      1     34     13      -5.712    
    129      1     35     13      -5.712    
    130      1     38     13      -5.712    
    131      1     39     13      -5.712    
    132      1     40     13      -2.544    
    133      1     41     13      -2.544    
    134      1     42     13     -0.2418    
    135      1     43     13     -0.2418    
    136      1     47     13      -2.544    
    137      1     48     13      -2.544    
    138      1     23     14      -5.710    
    139      1     24     14      -5.710    
    140      1     25     14     -0.5710    
    141      1     26     14     -0.5710    
    142      1     27     14      -5.710    
    143      1     28     14      -5.710    
    144      1     31     14     -0.9307    
    145      1     32     14      -5.711    
    146      1     33     14      -5.711    
    147      1     34     14      -5.712    
    148      1     35     14      -5.712    
    149      1     38     14      -5.712    
    150      1     39     14      -5.712    
    151      1     40     14      -2.544    
    152      1     41     14      -2.544    
    153      1     42     14     -0.2418    
    154      1     43     14     -0.2418    
    155      1     47     14      -2.544    
    156      1     48     14      -2.544    
    157      1     21     15      -5.710    
    158      1     22     15      -5.710    
    159      1     27     15      -5.710    
    160      1     28     15      -5.710    
    161      1     31     15      -11.42    
    162      1     32     15      -5.711    
    163      1     33     15      -5.711    
    164      1     34     15      -5.712    
    165      1     35     15      -5.712    
    166      1     36     15     -0.5712    
    167      1     37     15     -0.5712    
    168      1     40     15     -0.5087    
    169      1     41     15     -0.5087    
    170      1     42     15      -5.088    
    171      1     43     15      -5.088    
    172      1     44     15      -10.18    
    173      1     47     15      -5.088    
    174      1     48     15      -5.088    
    175      1     51     15      -5.089    
    176      1     52     15      -5.089    
    177      1     21     16      -5.710    
    178      1     22     16      -5.710    
    179      1     27     16      -5.710    
    180      1     28     16      -5.710    
    181      1     31     16      -11.42    
    182      1     32     16      -5.711    
    183      1     33     16      -5.711    
    184      1     34     16      -5.712    
    185      1     35     16      -5.712    
    186      1     36     16     -0.5712    
    187      1     37     16     -0.5712    
    188      1     38     16      -5.712    
    189      1     39     16      -5.712    
    190      1     44     16     -0.5088    
    191      1     47     16      -2.544    
    192      1     48     16      -2.544    
    193      1     51     16     -0.2450    
    194      1     52     16     -0.2450    
    195      1     21     17      -11.42    
    196      1     22     17      -11.42    
    197      1     23     17      -11.42    
    198      1     24     17      -11.42    
    199      1     27     17      -11.42    
    200      1     28     17      -11.42    
    201      1     34     17      -1.142    
    202      1     35     17      -1.142    
    203      1     36     17      -11.42    
    204      1     37     17      -11.42    
    205      1     38     17      -5.712    
    206      1     39     17      -5.712    
    207      1     44     17     -0.5088    
    208      1     47     17      -2.544    
    209      1     48     17      -2.544    
    210      1     51     17     -0.2450    
    211      1     52     17     -0.2450    
    212      1     21     18     -0.5710    
    213      1     22     18     -0.5710    
    214      1     31     18      -11.42    
    215      1     32     18     -0.5711    
    216      1     33     18     -0.5711    
    217      1     34     18      -5.712    
    218      1     35     18      -5.712    
    219      1     36     18      -5.712    
    220      1     37     18      -5.712    
    221      1     38     18      -5.712    
    222      1     39     18      -5.712    
    223      1     42     18      -2.544    
    224      1     43     18      -2.544    
    225      1     47     18      -2.544    
    226      1     48     18      -2.544    
    227      1     21     19     -0.5710    
    228      1     22     19     -0.5710    
    229      1     31     19      -11.42    
    230      1     32     19     -0.5711    
    231      1     33     19     -0.5711    
    232      1     34     19      -5.712    
    233      1     35     19      -5.712    
    234      1     36     19      -5.712    
    235      1     37     19      -5.712    
    236      1     38     19      -5.712    
    237      1     39     19      -5.712    
    238      1     42     19      -2.544    
    239      1     43     19      -2.544    
    240      1     47     19      -2.544    
    241      1     48     19      -2.544    
    242      1     21     20     -0.5710    
    243      1     22     20     -0.5710    
    244      1     23     20      -218.6    
    245      1     24     20      -218.6    
    246      1     29     20     -0.1551    
    247      1     30     20     -0.1551    
    248      1     31     20      -7.615    
    249      1     32     20      -7.615    
    250      1     33     20      -7.615    
    251      1     34     20      -5.712    
    252      1     35     20      -5.712    
    253      1     36     20      -5.712    
    254      1     37     20      -5.712    
    255      1     38     20      -5.712    
    256      1     39     20      -5.712    
    257      1     40     20      -2.544    
    258      1     41     20      -2.544    
    259      1     47     20      -2.544    
    260      1     48     20      -2.544    
    261      1     49     20      -2.544    
    262      1     50     20      -2.544    
    263      1     53     20      -2.545    
    264      1     54     20      -2.545    
    265      1     73     20      -3.759    
    266      1     74     20      -3.759    
    267      1     21     21     -0.5710    
    268      1     22     21     -0.5710    
    269      1     23     21      -218.6    
    270      1     24     21      -218.6    
    271      1     29     21     -0.1551    
    272      1     30     21     -0.1551    
    273      1     31     21      -7.615    
    274      1     32     21      -7.615    
    275      1     33     21      -7.615    
    276      1     34     21      -5.712    
    277      1     35     21      -5.712    
    278      1     36     21      -5.712    
    279      1     37     21      -5.712    
    280      1     38     21      -5.712    
    281      1     39     21      -5.712    
    282      1     40     21      -2.544    
    283      1     41     21      -2.544    
    284      1     47     21      -2.544    
    285      1     48     21      -2.544    
    286      1     49     21      -2.544    
    287      1     50     21      -2.544    
    288      1     53     21      -2.545    
    289      1     54     21      -2.545    
    290      1     73     21      -3.759    
    291      1     74     21      -3.759    
    292      1     76     21     -0.5013    
    293      1     77     21      -16.84    
    294      1     78     21      -16.84    
    295      1     79     21      -103.4    
    296      1     21     22      -9.964    
    297      1     22     22      -9.964    
    298      1     29     22     -0.3314    
    299      1     30     22     -0.3314    
    300      1     33     22      -11.42    
    301      1     34     22     -0.5712    
    302      1     35     22     -0.5712    
    303      1     38     22      -5.712    
    304      1     39     22      -5.712    
    305      1     40     22      -2.544    
    306      1     41     22      -2.544    
    307      1     44     22      -10.18    
    308      1     47     22      -5.088    
    309      1     48     22      -5.088    
    310      1     49     22      -5.089    
    311      1     50     22      -5.089    
    312      1     53     22     -0.5089    
    313      1     54     22     -0.5089    
    314      1     71     22      -7.519    
    315      1     72     22      -7.519    
    316      1     75     22     -0.5013    
    317      1     76     22     -0.5013    
    318      1     77     22      -16.84    
    319      1     78     22      -16.84    
    320      1     79     22      -103.4    
    321      1     21     23      -9.964    
    322      1     22     23      -9.964    
    323      1     29     23     -0.3314    
    324      1     30     23     -0.3314    
    325      1     33     23      -11.42    
    326      1     34     23     -0.5712    
    327      1     35     23     -0.5712    
    328      1     38     23      -5.712    
    329      1     39     23      -5.712    
    330      1     40     23      -2.544    
    331      1     41     23      -2.544    
    332      1     49     23      -2.544    
    333      1     50     23      -2.544    
    334      1     71     23      -3.759    
    335      1     72     23      -3.759    
    336      1     75     23      -3.760    
    337      1     76     23      -3.760    
    338      1     77     23      -1.688    
    339      1     78     23      -1.688    
    340      1     80     23      -4.277    
    341      1     81     23      -4.277    
    342      1     82     23      -1.689    
    343      1     83     23      -1.689    
    344      1     21     24      -11.42    
    345      1     22     24      -11.42    
    346      1     23     24      -11.42    
    347      1     24     24      -11.42    
    348      1     25     24      -11.42    
    349      1     26     24      -11.42    
    350      1     31     24      -3832.    
    351      1     32     24      -3832.    
    352      1     33     24      -22.85    
    353      1     34     24      -11.42    
    354      1     35     24      -11.42    
    355      1     38     24      -11.42    
    356      1     39     24      -11.42    
    357      1     40     24      -5.087    
    358      1     41     24      -5.087    
    359      1     42     24      -5.088    
    360      1     43     24      -5.088    
    361      1     49     24      -2.544    
    362      1     50     24      -2.544    
    363      1     71     24      -3.759    
    364      1     72     24      -3.759    
    365      1     75     24      -3.760    
    366      1     76     24      -3.760    
    367      1     77     24      -1.688    
    368      1     78     24      -1.688    
    369      1     80     24      -4.277    
    370      1     81     24      -4.277    
    371      1     82     24      -1.689    
    372      1     83     24      -1.689    
    373      1     21     25      -5.710    
    374      1     22     25      -5.710    
    375      1     23     25      -5.710    
    376      1     24     25      -5.710    
    377      1     25     25      -5.710    
    378      1     26     25      -5.710    
    379      1     31     25      -478.7    
    380      1     32     25      -478.7    
    381      1     33     25      -11.42    
    382      1     34     25      -328.4    
    383      1     35     25      -328.4    
    384      1     40     25      -2.544    
    385      1     41     25      -2.544    
    386      1     44     25      -5.088    
    387      1     49     25     -0.2481    
    388      1     50     25     -0.2481    
    389      1     51     25      -2.544    
    390      1     52     25      -2.544    
    391      1     55     25      -2.545    
    392      1     56     25      -2.545    
    393      1     69     25      -3.759    
    394      1     70     25      -3.759    
    395      1     71     25     -0.3620    
    396      1     72     25     -0.3620    
    397      1     75     25      -71.03    
    398      1     76     25      -71.03    
    399      1     79     25      -46.01    
    400      1     80     25      -296.3    
    401      1     81     25      -296.3    
    402      1     21     26      -5.710    
    403      1     22     26      -5.710    
    404      1     23     26      -5.710    
    405      1     24     26      -5.710    
    406      1     25     26      -5.710    
    407      1     26     26      -5.710    
    408      1     31     26      -478.7    
    409      1     32     26      -478.7    
    410      1     33     26      -11.42    
    411      1     34     26      -328.4    
    412      1     35     26      -328.4    
    413      1     40     26      -2.544    
    414      1     41     26      -2.544    
    415      1     44     26      -5.088    
    416      1     49     26     -0.2481    
    417      1     50     26     -0.2481    
    418      1     51     26      -2.544    
    419      1     52     26      -2.544    
    420      1     55     26      -2.545    
    421      1     56     26      -2.545    
    422      1     69     26      -3.759    
    423      1     70     26      -3.759    
    424      1     71     26     -0.3620    
    425      1     72     26     -0.3620    
    426      1     75     26      -71.03    
    427      1     76     26      -71.03    
    428      1     79     26      -46.01    
    429      1     80     26      -46.01    
    430      1     81     26      -296.3    
    431      1     20     27      -15.38    
    432      1     25     27      -274.4    
    433      1     26     27      -274.4    
    434      1     31     27      -5.711    
    435      1     32     27      -5.711    
    436      1     33     27      -1.142    
    437      1     34     27      -48.54    
    438      1     35     27      -48.54    
    439      1     36     27     -0.5712    
    440      1     37     27     -0.5712    
    441      1     40     27      -2.544    
    442      1     41     27      -2.544    
    443      1     45     27      -142.9    
    444      1     46     27      -142.9    
    445      1     51     27     -0.2419    
    446      1     52     27     -0.2419    
    447      1     55     27      -2.545    
    448      1     56     27      -2.545    
    449      1     66     27      -3.759    
    450      1     67     27      -3.759    
    451      1     68     27      -7.518    
    452      1     71     27      -3.759    
    453      1     72     27      -3.759    
    454      1     75     27      -3.760    
    455      1     76     27      -3.760    
    456      1     81     27      -172.6    
    457      1     82     27      -1.689    
    458      1     83     27      -1.689    
    459      1     84     27      -3.377    
    460      1     85     27      -3.377    
    461      1     20     28      -15.38    
    462      1     25     28      -274.4    
    463      1     26     28      -274.4    
    464      1     31     28      -5.711    
    465      1     32     28      -5.711    
    466      1     33     28      -1.142    
    467      1     34     28      -48.54    
    468      1     35     28      -48.54    
    469      1     36     28     -0.5712    
    470      1     37     28     -0.5712    
    471      1     40     28      -2.544    
    472      1     41     28      -2.544    
    473      1     45     28      -142.9    
    474      1     46     28      -142.9    
    475      1     51     28     -0.2419    
    476      1     52     28     -0.2419    
    477      1     55     28      -2.545    
    478      1     56     28      -2.545    
    479      1     66     28      -3.759    
    480      1     67     28      -3.759    
    481      1     68     28      -7.518    
    482      1     71     28      -3.759    
    483      1     72     28      -3.759    
    484      1     75     28      -3.760    
    485      1     76     28      -3.760    
    486      1     81     28      -172.6    
    487      1     82     28      -1.689    
    488      1     83     28      -1.689    
    489      1     84     28      -1.689    
    490      1     85     28      -1.689    
    491      1     86     28      -1.689    
    492      1     87     28      -1.689    
    493      1     20     29      -10.25    
    494      1     21     29     -0.7613    
    495      1     22     29     -0.7613    
    496      1     29     29      -3332.    
    497      1     30     29      -3332.    
    498      1     31     29      -174.1    
    499      1     32     29      -174.1    
    500      1     33     29      -1.142    
    501      1     40     29      -2.544    
    502      1     41     29      -2.544    
    503      1     42     29      -2.544    
    504      1     43     29      -2.544    
    505      1     44     29      -5.088    
    506      1     45     29      -2.544    
    507      1     46     29      -2.544    
    508      1     47     29      -2.544    
    509      1     48     29      -2.544    
    510      1     51     29     -0.4775    
    511      1     52     29     -0.4775    
    512      1     55     29     -0.4964    
    513      1     56     29     -0.4964    
    514      1     66     29     -0.7518    
    515      1     67     29     -0.7518    
    516      1     77     29      -3.377    
    517      1     78     29      -3.377    
    518      1     79     29      -3.377    
    519      1     80     29      -3.377    
    520      1     81     29      -6.754    
    521      1     82     29      -3.377    
    522      1     83     29      -3.377    
    523      1     84     29      -1.689    
    524      1     85     29      -1.689    
    525      1     86     29      -1.689    
    526      1     87     29      -1.689    
    527      1     20     30      -10.25    
    528      1     21     30      -10.25    
    529      1     22     30     -0.7613    
    530      1     29     30      -3332.    
    531      1     30     30      -3332.    
    532      1     31     30      -174.1    
    533      1     32     30      -174.1    
    534      1     33     30      -1.142    
    535      1     40     30      -2.544    
    536      1     41     30      -2.544    
    537      1     42     30      -2.544    
    538      1     43     30      -2.544    
    539      1     44     30      -5.088    
    540      1     45     30      -2.544    
    541      1     46     30      -2.544    
    542      1     47     30      -2.544    
    543      1     48     30      -2.544    
    544      1     53     30     -0.1136    
    545      1     54     30     -0.1136    
    546      1     66     30     -0.4606    
    547      1     67     30     -0.4606    
    548      1     68     30      -9.212    
    549      1     69     30      -4.606    
    550      1     70     30      -4.606    
    551      1     75     30      -4.607    
    552      1     76     30      -4.607    
    553      1     77     30      -3.761    
    554      1     78     30      -3.761    
    555      1     79     30      -3.761    
    556      1     80     30      -3.761    
    557      1     81     30      -7.523    
    558      1     82     30      -3.762    
    559      1     83     30      -3.762    
    560      1     86     30      -3.762    
    561      1     87     30      -3.762    
    562      1     20     31      -18.44    
    563      1     21     31      -18.44    
    564      1     31     31      -14.29    
    565      1     32     31      -14.29    
    566      1     33     31      -28.58    
    567      1     38     31      -14.29    
    568      1     39     31      -14.29    
    569      1     40     31      -5.747    
    570      1     41     31      -5.747    
    571      1     42     31      -5.748    
    572      1     43     31      -5.748    
    573      1     44     31      -11.50    
    574      1     45     31      -5.748    
    575      1     46     31      -5.748    
    576      1     47     31     -0.5181    
    577      1     48     31     -0.5181    
    578      1     49     31      -5.749    
    579      1     50     31      -5.749    
    580      1     53     31     -0.1136    
    581      1     54     31     -0.1136    
    582      1     66     31     -0.4606    
    583      1     67     31     -0.4606    
    584      1     68     31      -9.212    
    585      1     69     31      -4.606    
    586      1     70     31      -4.606    
    587      1     75     31      -4.607    
    588      1     76     31      -4.607    
    589      1     77     31      -3.761    
    590      1     78     31      -3.761    
    591      1     79     31      -3.761    
    592      1     80     31      -3.761    
    593      1     81     31      -7.523    
    594      1     82     31      -3.762    
    595      1     83     31      -3.762    
    596      1     86     31      -3.762    
    597      1     87     31      -3.762    
    598      1     22     32      -14.29    
    599      1     23     32     -0.7143    
    600      1     24     32     -0.7143    
    601      1     25     32      -27.09    
    602      1     26     32      -27.09    
    603      1     31     32      -7.144    
    604      1     32     32      -7.144    
    605      1     33     32      -14.29    
    606      1     36     32      -7.145    
    607      1     37     32      -7.145    
    608      1     38     32      -7.146    
    609      1     39     32      -7.146    
    610      1     40     32      -2.874    
    611      1     41     32      -2.874    
    612      1     42     32     -0.2022    
    613      1     43     32     -0.2022    
    614      1     45     32      -3.832    
    615      1     46     32      -3.832    
    616      1     47     32      -2.874    
    617      1     48     32      -2.874    
    618      1     49     32      -2.874    
    619      1     50     32      -2.874    
    620      1     55     32     -0.2804    
    621      1     56     32     -0.2804    
    622      1     57     32     -0.5750    
    623      1     66     32      -4.606    
    624      1     67     32      -4.606    
    625      1     68     32      -9.212    
    626      1     75     32      -4.607    
    627      1     76     32      -4.607    
    628      1     77     32      -3.761    
    629      1     78     32      -3.761    
    630      1     81     32     -0.7523    
    631      1     86     32      -3.762    
    632      1     87     32      -3.762    
    633      1     22     33      -14.29    
    634      1     23     33     -0.7143    
    635      1     24     33     -0.7143    
    636      1     25     33      -27.09    
    637      1     26     33      -27.09    
    638      1     31     33      -7.144    
    639      1     32     33      -7.144    
    640      1     33     33      -14.29    
    641      1     36     33      -7.145    
    642      1     37     33      -7.145    
    643      1     38     33      -7.146    
    644      1     39     33      -7.146    
    645      1     40     33      -2.874    
    646      1     41     33      -2.874    
    647      1     42     33     -0.2022    
    648      1     43     33     -0.2022    
    649      1     46     33      -3.832    
    650      1     47     33      -2.874    
    651      1     48     33      -2.874    
    652      1     49     33      -2.874    
    653      1     50     33      -2.874    
    654      1     55     33     -0.2804    
    655      1     56     33     -0.2804    
    656      1     57     33     -0.5750    
    657      1     66     33      -4.606    
    658      1     67     33      -4.606    
    659      1     68     33      -9.212    
    660      1     75     33      -4.607    
    661      1     76     33      -4.607    
    662      1     77     33      -3.761    
    663      1     78     33      -3.761    
    664      1     81     33     -0.7523    
    665      1     86     33      -3.762    
    666      1     87     33      -3.762    
    667      1     23     34      -7.143    
    668      1     24     34      -7.143    
    669      1     31     34      -4081.    
    670      1     32     34      -4081.    
    671      1     33     34      -14.29    
    672      1     36     34      -7.145    
    673      1     37     34      -7.145    
    674      1     38     34      -7.146    
    675      1     39     34      -7.146    
    676      1     40     34      -2.874    
    677      1     41     34      -2.874    
    678      1     42     34      -2.874    
    679      1     43     34      -2.874    
    680      1     44     34      -2.874    
    681      1     45     34      -2.874    
    682      1     49     34      -2.874    
    683      1     50     34      -2.874    
    684      1     57     34     -0.5750    
    685      1     62     34      -4.606    
    686      1     63     34      -4.606    
    687      1     64     34     -0.4606    
    688      1     65     34     -0.4606    
    689      1     66     34      -4.606    
    690      1     67     34      -4.606    
    691      1     69     34     -0.3355    
    692      1     70     34     -0.3355    
    693      1     71     34     -0.1763    
    694      1     72     34     -0.1763    
    695      1     75     34      -4.607    
    696      1     76     34      -4.607    
    697      1     79     34      -3.761    
    698      1     80     34      -3.761    
    699      1     81     34      -7.523    
    700      1     82     34      -3.762    
    701      1     83     34      -3.762    
    702      1     84     34      -3.762    
    703      1     85     34      -3.762    
    704      1     23     35      -7.143    
    705      1     24     35      -7.143    
    706      1     31     35      -4081.    
    707      1     32     35      -4081.    
    708      1     33     35      -14.29    
    709      1     36     35      -7.145    
    710      1     37     35      -7.145    
    711      1     38     35      -7.146    
    712      1     39     35      -7.146    
    713      1     40     35      -2.874    
    714      1     41     35      -2.874    
    715      1     42     35      -2.874    
    716      1     43     35      -2.874    
    717      1     44     35      -2.874    
    718      1     45     35      -2.874    
    719      1     49     35      -2.874    
    720      1     50     35      -2.874    
    721      1     57     35     -0.5750    
    722      1     62     35      -4.606    
    723      1     63     35      -4.606    
    724      1     64     35     -0.4606    
    725      1     65     35     -0.4606    
    726      1     66     35      -4.606    
    727      1     67     35      -4.606    
    728      1     69     35     -0.3355    
    729      1     70     35     -0.3355    
    730      1     71     35     -0.1763    
    731      1     72     35     -0.1763    
    732      1     75     35      -4.607    
    733      1     76     35      -4.607    
    734      1     79     35      -3.761    
    735      1     80     35      -3.761    
    736      1     81     35      -7.523    
    737      1     82     35      -3.762    
    738      1     83     35      -3.762    
    739      1     84     35      -3.762    
    740      1     85     35      -3.762    
    741      1     23     36     -0.7143    
    742      1     24     36     -0.7143    
    743      1     25     36      -7.143    
    744      1     26     36      -7.143    
    745      1     31     36      -4026.    
    746      1     32     36      -4026.    
    747      1     33     36      -14.29    
    748      1     36     36      -199.4    
    749      1     37     36      -199.4    
    750      1     38     36      -7.146    
    751      1     39     36      -7.146    
    752      1     40     36      -2.874    
    753      1     41     36      -2.874    
    754      1     42     36      -2.874    
    755      1     43     36      -2.874    
    756      1     44     36     -0.2874    
    757      1     45     36     -0.2874    
    758      1     46     36     -0.5322    
    759      1     49     36      -2.874    
    760      1     50     36      -2.874    
    761      1     53     36     -0.2839    
    762      1     54     36     -0.2839    
    763      1     55     36     -0.2875    
    764      1     56     36     -0.2875    
    765      1     57     36      -5.750    
    766      1     58     36      -9.210    
    767      1     59     36      -9.210    
    768      1     60     36      -9.211    
    769      1     61     36      -9.211    
    770      1     62     36      -9.211    
    771      1     63     36      -9.211    
    772      1     66     36      -9.212    
    773      1     67     36      -9.212    
    774      1     75     36     -0.3071    
    775      1     76     36     -0.3071    
    776      1     79     36      -7.523    
    777      1     80     36      -7.523    
    778      1     81     36      -15.05    
    779      1     82     36      -7.523    
    780      1     83     36      -7.523    
    781      1     23     37     -0.7143    
    782      1     24     37     -0.7143    
    783      1     25     37      -7.143    
    784      1     26     37      -7.143    
    785      1     31     37      -4026.    
    786      1     32     37      -4026.    
    787      1     33     37      -14.29    
    788      1     36     37      -199.4    
    789      1     37     37      -199.4    
    790      1     38     37      -7.146    
    791      1     39     37      -7.146    
    792      1     40     37      -2.874    
    793      1     41     37      -2.874    
    794      1     42     37      -2.874    
    795      1     43     37      -2.874    
    796      1     44     37     -0.2874    
    797      1     45     37     -0.2874    
    798      1     46     37     -0.5322    
    799      1     49     37      -2.874    
    800      1     50     37      -2.874    
    801      1     53     37     -0.2839    
    802      1     54     37     -0.2839    
    803      1     55     37     -0.2875    
    804      1     56     37     -0.2875    
    805      1     57     37      -5.750    
    806      1     58     37      -4.605    
    807      1     59     37      -4.605    
    808      1     60     37      -4.605    
    809      1     61     37      -4.605    
    810      1     62     37      -4.606    
    811      1     63     37      -4.606    
    812      1     68     37      -4.606    
    813      1     69     37      -4.606    
    814      1     70     37      -9.213    
    815      1     71     37      -4.607    
    816      1     72     37      -4.607    
    817      1     77     37     -0.3761    
    818      1     78     37     -0.3761    
    819      1     79     37      -3.761    
    820      1     80     37      -3.761    
    821      1     81     37      -7.523    
    822      1     82     37      -3.762    
    823      1     83     37      -3.762    
    824      1     23     38      -7.143    
    825      1     24     38      -7.143    
    826      1     25     38      -14.29    
    827      1     26     38      -14.29    
    828      1     27     38      -14.29    
    829      1     28     38      -14.29    
    830      1     31     38      -13.08    
    831      1     32     38      -13.08    
    832      1     33     38      -28.58    
    833      1     36     38      -14.29    
    834      1     37     38      -14.29    
    835      1     40     38      -46.62    
    836      1     41     38      -46.62    
    837      1     42     38      -5.748    
    838      1     43     38      -5.748    
    839      1     49     38     -0.4968E-01
    840      1     50     38     -0.4968E-01
    841      1     53     38      -5.749    
    842      1     54     38      -5.749    
    843      1     55     38      -5.750    
    844      1     56     38      -5.750    
    845      1     57     38      -11.50    
    846      1     58     38      -4.605    
    847      1     59     38      -4.605    
    848      1     60     38      -4.605    
    849      1     61     38      -4.605    
    850      1     62     38      -4.606    
    851      1     63     38      -4.606    
    852      1     68     38      -4.606    
    853      1     69     38      -4.606    
    854      1     70     38      -9.213    
    855      1     71     38      -4.607    
    856      1     72     38      -4.607    
    857      1     77     38     -0.3761    
    858      1     78     38     -0.3761    
    859      1     79     38      -3.761    
    860      1     80     38      -3.761    
    861      1     81     38      -7.523    
    862      1     82     38      -3.762    
    863      1     83     38      -3.762    
    864      1     23     39      -7.143    
    865      1     24     39      -7.143    
    866      1     25     39      -4.819    
    867      1     26     39      -4.819    
    868      1     27     39      -7.144    
    869      1     28     39      -7.144    
    870      1     33     39      -14.29    
    871      1     36     39     -0.7145    
    872      1     37     39     -0.7145    
    873      1     40     39      -2.874    
    874      1     41     39      -2.874    
    875      1     42     39      -2.874    
    876      1     43     39      -2.874    
    877      1     44     39      -2.874    
    878      1     45     39      -2.874    
    879      1     46     39      -5.748    
    880      1     47     39     -0.4613E-01
    881      1     48     39     -0.4613E-01
    882      1     51     39     -0.2875    
    883      1     52     39     -0.2875    
    884      1     53     39      -2.875    
    885      1     54     39      -2.875    
    886      1     57     39     -0.5750    
    887      1     58     39      -4.605    
    888      1     59     39      -4.605    
    889      1     60     39      -4.605    
    890      1     61     39      -4.605    
    891      1     64     39     -0.4606    
    892      1     65     39     -0.4606    
    893      1     70     39      -9.213    
    894      1     71     39      -4.607    
    895      1     72     39      -4.607    
    896      1     81     39      -7.523    
    897      1     82     39      -3.762    
    898      1     83     39      -3.762    
    899      1     23     40      -14.29    
    900      1     24     40      -14.29    
    901      1     25     40      -4.819    
    902      1     26     40      -4.819    
    903      1     27     40      -7.144    
    904      1     28     40      -7.144    
    905      1     33     40      -14.29    
    906      1     36     40     -0.7145    
    907      1     37     40     -0.7145    
    908      1     40     40      -2.874    
    909      1     41     40      -2.874    
    910      1     42     40      -2.874    
    911      1     43     40      -2.874    
    912      1     44     40      -2.874    
    913      1     45     40      -2.874    
    914      1     46     40      -5.748    
    915      1     47     40     -0.4613E-01
    916      1     48     40     -0.4613E-01
    917      1     51     40     -0.2875    
    918      1     52     40     -0.2875    
    919      1     53     40      -2.875    
    920      1     54     40      -2.875    
    921      1     57     40     -0.5750    
    922      1     58     40      -4.605    
    923      1     59     40      -4.605    
    924      1     60     40      -4.605    
    925      1     61     40      -4.605    
    926      1     64     40     -0.4606    
    927      1     65     40     -0.4606    
    928      1     70     40      -9.213    
    929      1     71     40      -4.607    
    930      1     72     40      -4.607    
    931      1     81     40      -7.523    
    932      1     82     40      -3.762    
    933      1     83     40      -3.762    
    934      1     23     41      -7.143    
    935      1     24     41      -7.143    
    936      1     33     41     -0.8821    
    937      1     36     41     -0.6969    
    938      1     37     41     -0.6969    
    939      1     38     41      -7.146    
    940      1     39     41      -7.146    
    941      1     40     41      -2.874    
    942      1     41     41      -2.874    
    943      1     42     41      -2.874    
    944      1     43     41      -2.874    
    945      1     44     41      -2.874    
    946      1     45     41      -2.874    
    947      1     46     41      -5.748    
    948      1     49     41      -5.777    
    949      1     50     41      -5.777    
    950      1     51     41      -2.875    
    951      1     52     41      -2.875    
    952      1     55     41      -2.875    
    953      1     56     41      -2.875    
    954      1     57     41      -5.750    
    955      1     58     41     -0.4605    
    956      1     59     41     -0.4605    
    957      1     60     41      -4.605    
    958      1     61     41      -4.605    
    959      1     62     41     -0.4606    
    960      1     63     41     -0.4606    
    961      1     70     41      -9.213    
    962      1     71     41     -0.2047    
    963      1     72     41     -0.2047    
    964      1     75     41     -0.3868    
    965      1     76     41     -0.3868    
    966      1     77     41      -156.7    
    967      1     78     41      -156.7    
    968      1     79     41      -3.761    
    969      1     80     41      -3.761    
    970      1     81     41      -7.523    
    971      1     82     41     -0.3762    
    972      1     83     41     -0.3762    
    973      1     23     42      -7.143    
    974      1     24     42      -7.143    
    975      1     33     42     -0.8821    
    976      1     34     42     -0.8821    
    977      1     36     42     -0.6969    
    978      1     37     42     -0.6969    
    979      1     38     42      -7.146    
    980      1     39     42      -7.146    
    981      1     40     42      -2.874    
    982      1     41     42      -2.874    
    983      1     42     42      -2.874    
    984      1     43     42      -2.874    
    985      1     44     42      -2.874    
    986      1     45     42      -2.874    
    987      1     46     42      -5.748    
    988      1     49     42      -5.777    
    989      1     50     42      -5.777    
    990      1     51     42      -2.875    
    991      1     52     42      -2.875    
    992      1     55     42      -2.875    
    993      1     56     42      -2.875    
    994      1     57     42      -5.750    
    995      1     58     42     -0.4605    
    996      1     59     42     -0.4605    
    997      1     60     42      -4.605    
    998      1     61     42      -4.605    
    999      1     62     42     -0.4606    
   1000      1     63     42     -0.4606    
   1001      1     70     42      -9.213    
   1002      1     71     42     -0.2047    
   1003      1     72     42     -0.2047    
   1004      1     75     42     -0.3868    
   1005      1     76     42     -0.3868    
   1006      1     77     42      -156.7    
   1007      1     78     42      -156.7    
   1008      1     79     42      -3.761    
   1009      1     80     42      -3.761    
   1010      1     81     42      -7.523    
   1011      1     82     42     -0.3762    
   1012      1     83     42     -0.3762    
   1013      1     22     43      -14.29    
   1014      1     23     43      -7.143    
   1015      1     24     43      -7.143    
   1016      1     25     43     -0.7143    
   1017      1     26     43     -0.7143    
   1018      1     36     43      -337.0    
   1019      1     37     43      -337.0    
   1020      1     38     43     -0.7146    
   1021      1     39     43     -0.7146    
   1022      1     40     43     -0.2874    
   1023      1     41     43     -0.2874    
   1024      1     42     43     -0.2874    
   1025      1     43     43     -0.2874    
   1026      1     44     43      -2.874    
   1027      1     45     43      -2.874    
   1028      1     46     43     -0.1632    
   1029      1     49     43      -2.874    
   1030      1     50     43      -2.874    
   1031      1     55     43     -0.2875    
   1032      1     56     43     -0.2875    
   1033      1     57     43      -5.750    
   1034      1     58     43      -4.605    
   1035      1     59     43      -4.605    
   1036      1     60     43      -4.605    
   1037      1     61     43      -4.605    
   1038      1     62     43      -4.606    
   1039      1     63     43      -4.606    
   1040      1     64     43      -4.606    
   1041      1     65     43      -4.606    
   1042      1     66     43      -9.212    
   1043      1     67     43      -9.212    
   1044      1     68     43      -94.16    
   1045      1     69     43      -94.16    
   1046      1     77     43     -0.7522    
   1047      1     78     43     -0.7522    
   1048      1     82     43     -0.7523    
   1049      1     83     43     -0.7523    
   1050      1     84     43      -7.524    
   1051      1     85     43      -7.524    
   1052      1     22     44      -14.29    
   1053      1     23     44      -7.143    
   1054      1     24     44      -7.143    
   1055      1     25     44     -0.7143    
   1056      1     26     44     -0.7143    
   1057      1     36     44      -337.0    
   1058      1     37     44      -337.0    
   1059      1     38     44     -0.7146    
   1060      1     39     44     -0.7146    
   1061      1     40     44     -0.2874    
   1062      1     41     44     -0.2874    
   1063      1     42     44     -0.2874    
   1064      1     43     44     -0.2874    
   1065      1     44     44      -2.874    
   1066      1     45     44      -2.874    
   1067      1     46     44     -0.1632    
   1068      1     49     44      -2.874    
   1069      1     50     44      -2.874    
   1070      1     55     44     -0.2875    
   1071      1     56     44     -0.2875    
   1072      1     57     44      -5.750    
   1073      1     58     44      -4.605    
   1074      1     59     44      -4.605    
   1075      1     60     44      -4.605    
   1076      1     61     44      -4.605    
   1077      1     62     44      -4.606    
   1078      1     63     44      -4.606    
   1079      1     64     44      -4.606    
   1080      1     65     44      -4.606    
   1081      1     75     44      -92.14    
   1082      1     76     44      -92.14    
   1083      1     79     44      -3.761    
   1084      1     80     44      -3.761    
   1085      1     81     44     -0.7523    
   1086      1     82     44      -3.762    
   1087      1     83     44      -3.762    
   1088      1     84     44      -3.762    
   1089      1     85     44      -3.762    
   1090      1     86     44      -73.00    
   1091      1     87     44      -73.00    
   1092      1     22     45      -14.29    
   1093      1     23     45      -7.143    
   1094      1     24     45      -7.143    
   1095      1     25     45      -7.143    
   1096      1     26     45      -7.143    
   1097      1     27     45     -0.7144    
   1098      1     28     45     -0.7144    
   1099      1     29     45      -7.144    
   1100      1     30     45      -7.144    
   1101      1     31     45      -1.429    
   1102      1     32     45      -1.429    
   1103      1     36     45      -208.2    
   1104      1     37     45      -208.2    
   1105      1     38     45      -1.429    
   1106      1     39     45      -1.429    
   1107      1     40     45      -5.747    
   1108      1     41     45      -5.747    
   1109      1     42     45     -0.5748    
   1110      1     43     45     -0.5748    
   1111      1     44     45     -0.5251    
   1112      1     45     45     -0.5251    
   1113      1     53     45      -5.749    
   1114      1     54     45      -5.749    
   1115      1     57     45      -5.750    
   1116      1     58     45      -5.750    
   1117      1     59     45      -18.42    
   1118      1     60     45      -9.211    
   1119      1     61     45      -9.211    
   1120      1     62     45      -9.211    
   1121      1     63     45      -9.211    
   1122      1     64     45      -9.212    
   1123      1     65     45      -9.212    
   1124      1     75     45      -92.14    
   1125      1     76     45      -92.14    
   1126      1     79     45      -3.761    
   1127      1     80     45      -3.761    
   1128      1     81     45     -0.7523    
   1129      1     82     45      -3.762    
   1130      1     83     45      -3.762    
   1131      1     84     45      -3.762    
   1132      1     85     45      -3.762    
   1133      1     86     45      -73.00    
   1134      1     87     45      -73.00    
   1135      1     22     46      -14.29    
   1136      1     23     46      -7.143    
   1137      1     24     46      -7.143    
   1138      1     25     46      -7.143    
   1139      1     26     46      -7.143    
   1140      1     27     46     -0.7144    
   1141      1     28     46     -0.7144    
   1142      1     29     46      -7.144    
   1143      1     30     46      -7.144    
   1144      1     31     46      -7.144    
   1145      1     32     46      -7.144    
   1146      1     36     46     -0.6175    
   1147      1     37     46     -0.6175    
   1148      1     40     46      -2.874    
   1149      1     41     46      -2.874    
   1150      1     42     46      -89.80    
   1151      1     43     46      -89.80    
   1152      1     51     46      -2.875    
   1153      1     52     46      -2.875    
   1154      1     53     46      -2.875    
   1155      1     54     46      -2.875    
   1156      1     55     46      -2.875    
   1157      1     56     46      -2.875    
   1158      1     57     46      -2.875    
   1159      1     58     46      -2.875    
   1160      1     59     46      -9.210    
   1161      1     60     46      -4.605    
   1162      1     61     46      -4.605    
   1163      1     64     46      -4.606    
   1164      1     65     46      -4.606    
   1165      1     66     46      -132.5    
   1166      1     67     46      -132.5    
   1167      1     73     46      -255.7    
   1168      1     74     46      -255.7    
   1169      1     75     46      -4.607    
   1170      1     76     46      -4.607    
   1171      1     77     46     -0.3761    
   1172      1     78     46     -0.3761    
   1173      1     79     46      -3.761    
   1174      1     80     46      -3.761    
   1175      1     81     46      -7.523    
   1176      1     82     46      -3.762    
   1177      1     83     46      -3.762    
   1178      1     84     46      -244.7    
   1179      1     85     46      -244.7    
   1180      1     88     46      -3.762    
   1181      1     89     46      -3.762    
   1182      1     20     47      -18.44    
   1183      1     21     47      -18.44    
   1184      1     22     47      -28.57    
   1185      1     23     47      -14.29    
   1186      1     24     47      -14.29    
   1187      1     25     47      -1.429    
   1188      1     26     47      -1.429    
   1189      1     27     47      -36.80    
   1190      1     28     47      -36.80    
   1191      1     29     47      -14.29    
   1192      1     30     47      -14.29    
   1193      1     31     47      -7.144    
   1194      1     32     47      -7.144    
   1195      1     36     47     -0.6175    
   1196      1     37     47     -0.6175    
   1197      1     40     47      -2.874    
   1198      1     41     47      -2.874    
   1199      1     42     47      -89.80    
   1200      1     43     47      -89.80    
   1201      1     51     47      -2.875    
   1202      1     52     47      -2.875    
   1203      1     53     47      -2.875    
   1204      1     54     47      -2.875    
   1205      1     55     47      -2.875    
   1206      1     56     47      -2.875    
   1207      1     57     47      -2.875    
   1208      1     58     47      -2.875    
   1209      1     59     47      -9.210    
   1210      1     60     47      -4.605    
   1211      1     61     47      -4.605    
   1212      1     64     47      -4.606    
   1213      1     65     47      -4.606    
   1214      1     66     47      -132.5    
   1215      1     67     47      -132.5    
   1216      1     73     47      -255.7    
   1217      1     74     47      -255.7    
   1218      1     75     47      -4.607    
   1219      1     76     47      -4.607    
   1220      1     77     47     -0.3761    
   1221      1     78     47     -0.3761    
   1222      1     79     47      -3.761    
   1223      1     80     47      -3.761    
   1224      1     81     47      -7.523    
   1225      1     82     47      -3.762    
   1226      1     83     47      -3.762    
   1227      1     84     47      -244.7    
   1228      1     85     47      -244.7    
   1229      1     88     47      -3.762    
   1230      1     89     47      -3.762    
   1231      1     16     48      -11.67    
   1232      1     17     48      -11.67    
   1233      1     22     48      -308.9    
   1234      1     23     48      -8.733    
   1235      1     24     48      -8.733    
   1236      1     25     48     -0.8733    
   1237      1     26     48     -0.8733    
   1238      1     29     48      -8.734    
   1239      1     30     48      -8.734    
   1240      1     31     48     -0.8734    
   1241      1     32     48     -0.8734    
   1242      1     33     48     -0.8735    
   1243      1     34     48     -0.8735    
   1244      1     40     48      -6.394    
   1245      1     41     48      -6.394    
   1246      1     47     48      -6.395    
   1247      1     48     48      -6.395    
   1248      1     49     48      -6.396    
   1249      1     50     48      -6.396    
   1250      1     51     48      -6.396    
   1251      1     52     48      -6.396    
   1252      1     53     48      -6.396    
   1253      1     54     48      -6.396    
   1254      1     55     48      -6.396    
   1255      1     56     48      -6.396    
   1256      1     57     48      -6.397    
   1257      1     58     48      -6.397    
   1258      1     59     48      -2.086    
   1259      1     60     48      -283.8    
   1260      1     61     48      -283.8    
   1261      1     64     48      -18.70    
   1262      1     65     48      -18.70    
   1263      1     66     48      -229.6    
   1264      1     67     48      -229.6    
   1265      1     73     48      -10.43    
   1266      1     74     48      -10.43    
   1267      1     79     48      -7.747    
   1268      1     80     48      -7.747    
   1269      1     81     48      -10.33    
   1270      1     82     48      -5.183    
   1271      1     83     48      -5.183    
   1272      1     84     48     -0.7748    
   1273      1     85     48     -0.7748    
   1274      1     88     48      -7.749    
   1275      1     89     48      -7.749    
   1276      1     16     49      -11.67    
   1277      1     17     49      -11.67    
   1278      1     22     49      -308.9    
   1279      1     23     49      -8.733    
   1280      1     24     49      -8.733    
   1281      1     25     49     -0.8733    
   1282      1     26     49     -0.8733    
   1283      1     29     49      -8.734    
   1284      1     30     49      -8.734    
   1285      1     31     49     -0.8734    
   1286      1     32     49     -0.8734    
   1287      1     33     49     -0.8735    
   1288      1     34     49     -0.8735    
   1289      1     40     49      -6.394    
   1290      1     41     49      -6.394    
   1291      1     47     49      -6.395    
   1292      1     48     49      -6.395    
   1293      1     49     49      -6.396    
   1294      1     50     49      -6.396    
   1295      1     51     49      -6.396    
   1296      1     52     49      -6.396    
   1297      1     53     49      -6.396    
   1298      1     54     49      -6.396    
   1299      1     55     49      -6.396    
   1300      1     56     49      -6.396    
   1301      1     57     49      -6.397    
   1302      1     58     49      -6.397    
   1303      1     59     49      -2.086    
   1304      1     60     49      -283.8    
   1305      1     61     49      -283.8    
   1306      1     64     49      -18.70    
   1307      1     65     49      -18.70    
   1308      1     66     49      -229.6    
   1309      1     67     49      -229.6    
   1310      1     73     49      -10.43    
   1311      1     74     49      -10.43    
   1312      1     79     49      -7.747    
   1313      1     80     49      -7.747    
   1314      1     81     49      -10.33    
   1315      1     82     49      -10.33    
   1316      1     83     49      -5.183    
   1317      1     84     49     -0.7748    
   1318      1     85     49     -0.7748    
   1319      1     88     49      -7.749    
   1320      1     89     49      -7.749    
   1321      1     16     50      -11.67    
   1322      1     17     50      -11.67    
   1323      1     20     50      -1.168    
   1324      1     21     50      -1.168    
   1325      1     22     50      -17.46    
   1326      1     23     50     -0.8733    
   1327      1     24     50     -0.8733    
   1328      1     25     50     -0.8733    
   1329      1     26     50     -0.8733    
   1330      1     29     50      -19.43    
   1331      1     30     50      -19.43    
   1332      1     31     50      -697.6    
   1333      1     32     50      -697.6    
   1334      1     33     50     -0.8735    
   1335      1     34     50     -0.8735    
   1336      1     35     50      -17.47    
   1337      1     38     50      -3621.    
   1338      1     39     50      -3621.    
   1339      1     40     50      -6.394    
   1340      1     41     50      -6.394    
   1341      1     42     50     -0.6394    
   1342      1     43     50     -0.6394    
   1343      1     46     50     -0.1421    
   1344      1     47     50      -6.395    
   1345      1     48     50      -6.395    
   1346      1     49     50      -6.396    
   1347      1     50     50      -6.396    
   1348      1     51     50      -19.13    
   1349      1     52     50      -19.13    
   1350      1     55     50      -6.396    
   1351      1     56     50      -6.396    
   1352      1     57     50      -6.397    
   1353      1     58     50      -6.397    
   1354      1     59     50      -20.86    
   1355      1     64     50      -10.43    
   1356      1     65     50      -10.43    
   1357      1     66     50      -1.043    
   1358      1     67     50      -1.043    
   1359      1     68     50      -79.90    
   1360      1     69     50      -79.90    
   1361      1     70     50      -20.87    
   1362      1     79     50      -1.549    
   1363      1     80     50      -1.549    
   1364      1     81     50      -15.49    
   1365      1     82     50      -15.49    
   1366      1     83     50      -3.099    
   1367      1     84     50      -756.0    
   1368      1     85     50      -756.0    
   1369      1     86     50      -1.550    
   1370      1     87     50      -1.550    
   1371      1     88     50      -15.50    
   1372      1     89     50      -15.50    
   1373      1     16     51      -11.67    
   1374      1     17     51      -11.67    
   1375      1     20     51      -1.168    
   1376      1     21     51      -1.168    
   1377      1     22     51      -17.46    
   1378      1     23     51     -0.8733    
   1379      1     24     51     -0.8733    
   1380      1     25     51     -0.8733    
   1381      1     26     51     -0.8733    
   1382      1     29     51      -19.43    
   1383      1     30     51      -19.43    
   1384      1     31     51      -697.6    
   1385      1     32     51      -697.6    
   1386      1     33     51     -0.8735    
   1387      1     34     51     -0.8735    
   1388      1     35     51      -17.47    
   1389      1     38     51      -3621.    
   1390      1     39     51      -3621.    
   1391      1     40     51      -6.394    
   1392      1     41     51      -6.394    
   1393      1     42     51     -0.6394    
   1394      1     43     51     -0.6394    
   1395      1     46     51     -0.1421    
   1396      1     47     51      -6.395    
   1397      1     48     51      -6.395    
   1398      1     49     51      -6.396    
   1399      1     50     51      -6.396    
   1400      1     51     51      -19.13    
   1401      1     52     51      -19.13    
   1402      1     55     51      -6.396    
   1403      1     56     51      -6.396    
   1404      1     57     51      -6.397    
   1405      1     58     51      -6.397    
   1406      1     59     51      -20.86    
   1407      1     64     51      -10.43    
   1408      1     65     51      -10.43    
   1409      1     66     51      -1.043    
   1410      1     67     51      -1.043    
   1411      1     68     51      -79.90    
   1412      1     69     51      -79.90    
   1413      1     70     51      -20.87    
   1414      1     74     51      -13.91    
   1415      1     75     51      -10.43    
   1416      1     76     51      -10.43    
   1417      1     77     51      -7.747    
   1418      1     78     51      -7.747    
   1419      1     79     51      -7.747    
   1420      1     80     51      -7.747    
   1421      1     81     51      -7.747    
   1422      1     82     51      -7.747    
   1423      1     83     51      -491.6    
   1424      1     86     51     -0.7748    
   1425      1     87     51     -0.7748    
   1426      1     88     51      -7.749    
   1427      1     89     51      -7.749    
   1428      1     16     52      -11.67    
   1429      1     17     52      -11.67    
   1430      1     20     52      -1.168    
   1431      1     21     52      -1.168    
   1432      1     22     52      -8.732    
   1433      1     23     52      -8.732    
   1434      1     24     52      -17.47    
   1435      1     31     52      -8.734    
   1436      1     32     52      -8.734    
   1437      1     33     52      -7.860    
   1438      1     34     52      -7.860    
   1439      1     35     52      -17.47    
   1440      1     38     52      -11.65    
   1441      1     39     52      -11.65    
   1442      1     40     52      -12.79    
   1443      1     41     52      -12.79    
   1444      1     42     52      -12.79    
   1445      1     43     52      -12.79    
   1446      1     49     52      -3.447    
   1447      1     50     52      -3.447    
   1448      1     51     52      -414.5    
   1449      1     52     52      -414.5    
   1450      1     55     52      -12.79    
   1451      1     56     52      -12.79    
   1452      1     57     52      -12.79    
   1453      1     58     52      -12.79    
   1454      1     59     52      -6.708    
   1455      1     64     52      -243.9    
   1456      1     65     52      -243.9    
   1457      1     66     52      -20.86    
   1458      1     67     52      -20.86    
   1459      1     68     52      -20.86    
   1460      1     69     52      -20.86    
   1461      1     73     52      -13.91    
   1462      1     74     52      -13.91    
   1463      1     75     52      -10.43    
   1464      1     76     52      -10.43    
   1465      1     77     52      -7.747    
   1466      1     78     52      -7.747    
   1467      1     79     52      -7.747    
   1468      1     80     52      -7.747    
   1469      1     81     52      -7.747    
   1470      1     82     52      -7.747    
   1471      1     83     52      -491.6    
   1472      1     86     52     -0.7748    
   1473      1     87     52     -0.7748    
   1474      1     88     52      -7.749    
   1475      1     89     52      -7.749    
   1476      1     16     53      -11.67    
   1477      1     17     53      -11.67    
   1478      1     20     53      -1.168    
   1479      1     21     53      -1.168    
   1480      1     22     53      -8.732    
   1481      1     23     53      -8.732    
   1482      1     24     53      -17.47    
   1483      1     31     53      -8.734    
   1484      1     32     53      -8.734    
   1485      1     33     53      -7.860    
   1486      1     34     53      -7.860    
   1487      1     35     53      -17.47    
   1488      1     38     53      -11.65    
   1489      1     39     53      -1.165    
   1490      1     40     53      -6.394    
   1491      1     41     53      -6.394    
   1492      1     42     53     -0.6394    
   1493      1     43     53     -0.6394    
   1494      1     44     53      -6.395    
   1495      1     45     53      -6.395    
   1496      1     46     53     -0.5053    
   1497      1     49     53     -0.4185    
   1498      1     50     53     -0.4185    
   1499      1     55     53      -6.396    
   1500      1     56     53      -6.396    
   1501      1     57     53      -6.397    
   1502      1     58     53      -6.397    
   1503      1     59     53      -280.4    
   1504      1     64     53      -3.292    
   1505      1     65     53      -3.292    
   1506      1     66     53      -5.560    
   1507      1     67     53      -5.560    
   1508      1     68     53      -10.43    
   1509      1     69     53      -10.43    
   1510      1     73     53      -10.43    
   1511      1     74     53      -10.43    
   1512      1     75     53      -5520.    
   1513      1     76     53      -5520.    
   1514      1     77     53      -7.747    
   1515      1     78     53      -7.747    
   1516      1     79     53      -7.747    
   1517      1     80     53      -7.747    
   1518      1     81     53      -7.747    
   1519      1     82     53      -7.747    
   1520      1     83     53      -15.50    
   1521      1     86     53     -0.7748    
   1522      1     87     53     -0.7748    
   1523      1     88     53      -7.749    
   1524      1     89     53      -7.749    
   1525      1     16     54      -23.35    
   1526      1     17     54      -23.35    
   1527      1     20     54      -23.35    
   1528      1     21     54      -23.35    
   1529      1     22     54      -17.46    
   1530      1     23     54      -17.46    
   1531      1     24     54      -478.9    
   1532      1     27     54      -1.747    
   1533      1     28     54      -1.747    
   1534      1     33     54      -150.4    
   1535      1     34     54      -150.4    
   1536      1     38     54      -1.165    
   1537      1     39     54      -1.165    
   1538      1     40     54      -6.394    
   1539      1     41     54      -6.394    
   1540      1     42     54     -0.6394    
   1541      1     43     54     -0.6394    
   1542      1     44     54      -6.395    
   1543      1     45     54      -6.395    
   1544      1     46     54     -0.5053    
   1545      1     49     54     -0.4185    
   1546      1     50     54     -0.4185    
   1547      1     55     54      -6.396    
   1548      1     56     54      -6.396    
   1549      1     57     54      -6.397    
   1550      1     58     54      -6.397    
   1551      1     59     54      -280.4    
   1552      1     64     54      -3.292    
   1553      1     65     54      -3.292    
   1554      1     66     54      -5.560    
   1555      1     67     54      -5.560    
   1556      1     68     54      -10.43    
   1557      1     69     54      -10.43    
   1558      1     73     54      -10.43    
   1559      1     74     54      -10.43    
   1560      1     75     54      -5520.    
   1561      1     76     54      -5520.    
   1562      1     77     54      -7.747    
   1563      1     78     54      -7.747    
   1564      1     79     54      -7.747    
   1565      1     80     54      -7.747    
   1566      1     81     54      -7.747    
   1567      1     82     54      -7.747    
   1568      1     83     54      -15.50    
   1569      1     86     54     -0.7748    
   1570      1     87     54     -0.7748    
   1571      1     88     54      -7.749    
   1572      1     89     54      -7.749    
   1573      1     14     55      -11.67    
   1574      1     15     55      -11.67    
   1575      1     16     55      -111.8    
   1576      1     17     55      -111.8    
   1577      1     22     55      -8.732    
   1578      1     23     55      -8.732    
   1579      1     24     55      -1.747    
   1580      1     25     55     -0.8733    
   1581      1     26     55     -0.8733    
   1582      1     27     55      -8.734    
   1583      1     28     55      -8.734    
   1584      1     29     55      -196.0    
   1585      1     30     55      -196.0    
   1586      1     33     55     -0.8735    
   1587      1     34     55     -0.8735    
   1588      1     35     55      -17.47    
   1589      1     38     55     -0.8628    
   1590      1     39     55     -0.8628    
   1591      1     40     55      -6.394    
   1592      1     41     55      -6.394    
   1593      1     42     55      -6.394    
   1594      1     43     55      -6.394    
   1595      1     44     55     -0.6395    
   1596      1     45     55     -0.6395    
   1597      1     53     55     -0.6396    
   1598      1     54     55     -0.6396    
   1599      1     55     55      -6.396    
   1600      1     56     55      -6.396    
   1601      1     57     55      -144.9    
   1602      1     58     55      -144.9    
   1603      1     59     55      -20.86    
   1604      1     66     55     -0.9144    
   1605      1     67     55     -0.9144    
   1606      1     71     55      -10.43    
   1607      1     72     55      -10.43    
   1608      1     84     55     -0.7748    
   1609      1     85     55     -0.7748    
   1610      1     90     55      -7.749    
   1611      1     91     55      -7.749    
   1612      1     14     56      -11.67    
   1613      1     15     56      -11.67    
   1614      1     16     56      -111.8    
   1615      1     17     56      -111.8    
[...]
   9939      1    108    258       1516.    
   9940      1    108    259       1516.    
   9941      1    108    260       1516.    
   9942      1    108    261       1516.    
   9943      1    109    241       1516.    
   9944      1    109    242       1516.    
   9945      1    109    243       1516.    
   9946      1    109    245       1516.    
   9947      1    109    247       1516.    
   9948      1    109    250       1516.    
   9949      1    109    252       1516.    
   9950      1    109    255       1516.    
   9951      1    109    258       1516.    
   9952      1    109    259       1516.    
   9953      1    109    260       1516.    
   9954      1    109    294       1516.    
   9955      1    109    339       1516.    
   9956      1    110    244       1516.    
   9957      1    110    245       1516.    
   9958      1    110    246       1516.    
   9959      1    110    249       1516.    
   9960      1    110    252       1516.    
   9961      1    110    255       1516.    
   9962      1    110    257       1516.    
   9963      1    110    295       1516.    
   9964      1    110    332       1516.    
   9965      1    110    333       1516.    
   9966      1    110    338       1516.    
   9967      1    111    246       1516.    
   9968      1    111    249       1516.    
   9969      1    111    252       1516.    
   9970      1    111    254       1516.    
   9971      1    111    256       1516.    
   9972      1    111    271       1516.    
   9973      1    111    285       1516.    
   9974      1    111    286       1516.    
   9975      1    111    295       1516.    
   9976      1    111    332       1516.    
   9977      1    111    338       1516.    
   9978      1    112    247       1516.    
   9979      1    112    249       1516.    
   9980      1    112    251       1516.    
   9981      1    112    252       1516.    
   9982      1    112    253       1516.    
   9983      1    112    254       1516.    
   9984      1    112    255       1516.    
   9985      1    112    271       1516.    
   9986      1    112    284       1516.    
   9987      1    112    285       1516.    
   9988      1    112    295       1516.    
   9989      1    112    333       1516.    
   9990      1    113    248       1516.    
   9991      1    113    249       1516.    
   9992      1    113    250       1516.    
   9993      1    113    255       1516.    
   9994      1    113    270       1516.    
   9995      1    113    277       1516.    
   9996      1    113    278       1516.    
   9997      1    113    283       1516.    
   9998      1    113    295       1516.    
   9999      1    113    298       1516.    
  10000      1    113    299       1516.    
  10001      1    113    322       1516.    
  10002      1    113    332       1516.    
  10003      1    114    254       1516.    
  10004      1    114    262       1516.    
  10005      1    114    263       1516.    
  10006      1    114    269       1516.    
  10007      1    114    270       1516.    
  10008      1    114    276       1516.    
  10009      1    114    283       1516.    
  10010      1    114    291       1516.    
  10011      1    114    296       1516.    
  10012      1    114    297       1516.    
  10013      1    114    298       1516.    
  10014      1    114    323       1516.    
  10015      1    114    333       1516.    
  10016      1    115    254       1516.    
  10017      1    115    261       1516.    
  10018      1    115    270       1516.    
  10019      1    115    275       1516.    
  10020      1    115    276       1516.    
  10021      1    115    283       1516.    
  10022      1    115    291       1516.    
  10023      1    115    297       1516.    
  10024      1    115    298       1516.    
  10025      1    115    304       1516.    
  10026      1    115    306       1516.    
  10027      1    115    323       1516.    
  10028      1    115    324       1516.    
  10029      1    115    333       1516.    
  10030      1    116    254       1516.    
  10031      1    116    255       1516.    
  10032      1    116    260       1516.    
  10033      1    116    261       1516.    
  10034      1    116    270       1516.    
  10035      1    116    271       1516.    
  10036      1    116    272       1516.    
  10037      1    116    273       1516.    
  10038      1    116    274       1516.    
  10039      1    116    283       1516.    
  10040      1    116    291       1516.    
  10041      1    116    298       1516.    
  10042      1    116    299       1516.    
  10043      1    116    304       1516.    
  10044      1    116    306       1516.    
  10045      1    116    325       1516.    
  10046      1    116    326       1516.    
  10047      1    117    255       1516.    
  10048      1    117    256       1516.    
  10049      1    117    257       1516.    
  10050      1    117    258       1516.    
  10051      1    117    259       1516.    
  10052      1    117    267       1516.    
  10053      1    117    268       1516.    
  10054      1    117    269       1516.    
  10055      1    117    282       1516.    
  10056      1    117    291       1516.    
  10057      1    117    299       1516.    
  10058      1    117    305       1516.    
  10059      1    117    306       1516.    
  10060      1    117    312       1516.    
  10061      1    117    313       1516.    
  10062      1    117    327       1516.    
  10063      1    118    256       1516.    
  10064      1    118    258       1516.    
  10065      1    118    267       1516.    
  10066      1    118    281       1516.    
  10067      1    118    282       1516.    
  10068      1    118    291       1516.    
  10069      1    118    298       1516.    
  10070      1    118    305       1516.    
  10071      1    118    312       1516.    
  10072      1    118    323       1516.    
  10073      1    118    327       1516.    
  10074      1    119    256       1516.    
  10075      1    119    257       1516.    
  10076      1    119    267       1516.    
  10077      1    119    281       1516.    
  10078      1    119    291       1516.    
  10079      1    119    298       1516.    
  10080      1    119    305       1516.    
  10081      1    119    312       1516.    
  10082      1    119    324       1516.    
  10083      1    119    327       1516.    
  10084      1    120    257       1516.    
  10085      1    120    260       1516.    
  10086      1    120    261       1516.    
  10087      1    120    262       1516.    
  10088      1    120    266       1516.    
  10089      1    120    267       1516.    
  10090      1    120    280       1516.    
  10091      1    120    291       1516.    
  10092      1    120    298       1516.    
  10093      1    120    300       1516.    
  10094      1    120    306       1516.    
  10095      1    120    312       1516.    
  10096      1    120    325       1516.    
  10097      1    120    326       1516.    
  10098      1    120    327       1516.    
  10099      1    121    257       1516.    
  10100      1    121    258       1516.    
  10101      1    121    259       1516.    
  10102      1    121    263       1516.    
  10103      1    121    264       1516.    
  10104      1    121    266       1516.    
  10105      1    121    270       1516.    
  10106      1    121    280       1516.    
  10107      1    121    291       1516.    
  10108      1    121    298       1516.    
  10109      1    121    299       1516.    
  10110      1    121    300       1516.    
  10111      1    121    305       1516.    
  10112      1    121    311       1516.    
  10113      1    121    312       1516.    
  10114      1    121    326       1516.    
  10115      1    121    327       1516.    
  10116      1    122    263       1516.    
  10117      1    122    265       1516.    
  10118      1    122    271       1516.    
  10119      1    122    272       1516.    
  10120      1    122    278       1516.    
  10121      1    122    279       1516.    
  10122      1    122    291       1516.    
  10123      1    122    298       1516.    
  10124      1    122    305       1516.    
  10125      1    122    311       1516.    
  10126      1    123    263       1516.    
  10127      1    123    273       1516.    
  10128      1    123    278       1516.    
  10129      1    123    291       1516.    
  10130      1    123    295       1516.    
  10131      1    123    299       1516.    
  10132      1    123    305       1516.    
  10133      1    123    310       1516.    
  10134      1    123    326       1516.    
  10135      1    124    264       1516.    
  10136      1    124    272       1516.    
  10137      1    124    274       1516.    
  10138      1    124    278       1516.    
  10139      1    124    291       1516.    
  10140      1    124    295       1516.    
  10141      1    124    300       1516.    
  10142      1    124    304       1516.    
  10143      1    124    310       1516.    
  10144      1    124    326       1516.    
  10145      1    125    265       1516.    
  10146      1    125    267       1516.    
  10147      1    125    268       1516.    
  10148      1    125    271       1516.    
  10149      1    125    274       1516.    
  10150      1    125    277       1516.    
  10151      1    125    291       1516.    
  10152      1    125    295       1516.    
  10153      1    125    300       1516.    
  10154      1    125    301       1516.    
  10155      1    125    302       1516.    
  10156      1    125    303       1516.    
  10157      1    125    304       1516.    
  10158      1    125    310       1516.    
  10159      1    125    325       1516.    
  10160      1    126    266       1516.    
  10161      1    126    267       1516.    
  10162      1    126    271       1516.    
  10163      1    126    274       1516.    
  10164      1    126    277       1516.    
  10165      1    126    291       1516.    
  10166      1    126    295       1516.    
  10167      1    126    300       1516.    
  10168      1    126    310       1516.    
  10169      1    126    312       1516.    
  10170      1    127    267       1516.    
  10171      1    127    271       1516.    
  10172      1    127    273       1516.    
  10173      1    127    277       1516.    
  10174      1    127    286       1516.    
  10175      1    127    290       1516.    
  10176      1    127    294       1516.    
  10177      1    127    299       1516.    
  10178      1    127    310       1516.    
  10179      1    127    311       1516.    
  10180      1    127    324       1516.    
  10181      1    128    267       1516.    
  10182      1    128    270       1516.    
  10183      1    128    271       1516.    
  10184      1    128    273       1516.    
  10185      1    128    276       1516.    
  10186      1    128    286       1516.    
  10187      1    128    287       1516.    
  10188      1    128    288       1516.    
  10189      1    128    290       1516.    
  10190      1    128    294       1516.    
  10191      1    128    299       1516.    
  10192      1    128    303       1516.    
  10193      1    128    309       1516.    
  10194      1    128    310       1516.    
  10195      1    128    311       1516.    
  10196      1    128    323       1516.    
  10197      1    129    268       1516.    
  10198      1    129    269       1516.    
  10199      1    129    271       1516.    
  10200      1    129    272       1516.    
  10201      1    129    273       1516.    
  10202      1    129    276       1516.    
  10203      1    129    277       1516.    
  10204      1    129    289       1516.    
  10205      1    129    290       1516.    
  10206      1    129    293       1516.    
  10207      1    129    299       1516.    
  10208      1    129    300       1516.    
  10209      1    129    301       1516.    
  10210      1    129    302       1516.    
  10211      1    129    305       1516.    
  10212      1    129    307       1516.    
  10213      1    129    308       1516.    
  10214      1    129    311       1516.    
  10215      1    130    273       1516.    
  10216      1    130    274       1516.    
  10217      1    130    276       1516.    
  10218      1    130    277       1516.    
  10219      1    130    288       1516.    
  10220      1    130    289       1516.    
  10221      1    130    290       1516.    
  10222      1    130    291       1516.    
  10223      1    130    292       1516.    
  10224      1    130    299       1516.    
  10225      1    130    303       1516.    
  10226      1    130    304       1516.    
  10227      1    130    305       1516.    
  10228      1    130    306       1516.    
  10229      1    130    310       1516.    
  10230      1    131    274       1516.    
  10231      1    131    277       1516.    
  10232      1    131    287       1516.    
  10233      1    131    289       1516.    
  10234      1    131    292       1516.    
  10235      1    131    293       1516.    
  10236      1    131    294       1516.    
  10237      1    131    299       1516.    
  10238      1    131    303       1516.    
  10239      1    131    310       1516.    
  10240      1    132    274       1516.    
  10241      1    132    276       1516.    
  10242      1    132    283       1516.    
  10243      1    132    288       1516.    
  10244      1    132    295       1516.    
  10245      1    132    296       1516.    
  10246      1    132    297       1516.    
  10247      1    132    299       1516.    
  10248      1    132    301       1516.    
  10249      1    132    302       1516.    
  10250      1    132    310       1516.    
  10251      1    133    275       1516.    
  10252      1    133    276       1516.    
  10253      1    133    283       1516.    
  10254      1    133    288       1516.    
  10255      1    133    297       1516.    
  10256      1    133    298       1516.    
  10257      1    133    300       1516.    
  10258      1    133    301       1516.    
  10259      1    133    304       1516.    
  10260      1    133    310       1516.    
  10261      1    133    317       1516.    
  10262      1    134    275       1516.    
  10263      1    134    276       1516.    
  10264      1    134    284       1516.    
  10265      1    134    289       1516.    
  10266      1    134    299       1516.    
  10267      1    134    300       1516.    
  10268      1    134    304       1516.    
  10269      1    134    310       1516.    
  10270      1    134    315       1516.    
  10271      1    134    316       1516.    
  10272      1    135    277       1516.    
  10273      1    135    278       1516.    
  10274      1    135    284       1516.    
  10275      1    135    288       1516.    
  10276      1    135    301       1516.    
  10277      1    135    302       1516.    
  10278      1    135    303       1516.    
  10279      1    135    305       1516.    
  10280      1    135    310       1516.    
  10281      1    135    313       1516.    
  10282      1    135    314       1516.    
  10283      1    136    279       1516.    
  10284      1    136    282       1516.    
  10285      1    136    285       1516.    
  10286      1    136    286       1516.    
  10287      1    136    287       1516.    
  10288      1    136    301       1516.    
  10289      1    136    304       1516.    
  10290      1    136    308       1516.    
  10291      1    136    309       1516.    
  10292      1    136    310       1516.    
  10293      1    136    312       1516.    
  10294      1    137    280       1516.    
  10295      1    137    282       1516.    
  10296      1    137    285       1516.    
  10297      1    137    302       1516.    
  10298      1    137    303       1516.    
  10299      1    137    306       1516.    
  10300      1    137    307       1516.    
  10301      1    137    309       1516.    
  10302      1    137    311       1516.    
  10303      1    138    281       1516.    
  10304      1    138    282       1516.    
  10305      1    138    284       1516.    
  10306      1    138    302       1516.    
  10307      1    138    307       1516.    
  10308      1    139    282       1516.    
  10309      1    139    283       1516.    
  10310      1    139    284       1516.    
  10311      1    139    302       1516.    
  10312      1    139    303       1516.    
  10313      1    139    305       1516.    
  10314      1    139    306       1516.    
  10315      1    140    302       1516.    
  10316      1    140    303       1516.    
  10317      1    140    304       1516.    
  10318      1    140    305       1516.    
  10319      1    140    306       1516.    
  10320      1    140    307       1516.    
  10321      1    141    302       1516.    

  10321 WELLS

  54036 DRAINS



                           RECHARGE
 READING ON UNIT   19 WITH FORMAT: (342E15.6)          
 
 SOLVING FOR HEAD 

    ------------------------------------------------
       NWT REQUIRED            4 OUTER ITERATIONS 
       AND A TOTAL OF          7 INNER ITERATIONS.
    ------------------------------------------------

 OUTPUT CONTROL FOR STRESS PERIOD    1   TIME STEP    1
    SAVE HEAD FOR ALL LAYERS

 HEAD WILL BE SAVED ON UNIT   51 AT END OF TIME STEP    1, STRESS PERIOD    1
1
  VOLUMETRIC BUDGET FOR ENTIRE MODEL AT END OF TIME STEP    1, STRESS PERIOD   1
  ------------------------------------------------------------------------------

     CUMULATIVE VOLUMES      L**3       RATES FOR THIS TIME STEP      L**3/T
     ------------------                 ------------------------

           IN:                                      IN:
           ---                                      ---
             STORAGE =    13122954.0000               STORAGE =    13122954.0000
       CONSTANT HEAD =           0.0000         CONSTANT HEAD =           0.0000
               WELLS =     2408611.2500                 WELLS =     2408611.2500
              DRAINS =           0.0000                DRAINS =           0.0000
            RECHARGE =     1885790.0000              RECHARGE =     1885790.0000

            TOTAL IN =    17417356.0000              TOTAL IN =    17417356.0000

          OUT:                                     OUT:
          ----                                     ----
             STORAGE =     1717676.8750               STORAGE =     1717676.8750
       CONSTANT HEAD =           0.0000         CONSTANT HEAD =           0.0000
               WELLS =     1607509.3750                 WELLS =     1607509.3750
              DRAINS =    14092416.0000                DRAINS =    14092416.0000
            RECHARGE =           0.0000              RECHARGE =           0.0000

           TOTAL OUT =    17417602.0000             TOTAL OUT =    17417602.0000

            IN - OUT =        -246.0000              IN - OUT =        -246.0000

 PERCENT DISCREPANCY =          -0.00     PERCENT DISCREPANCY =          -0.00






         TIME SUMMARY AT END OF TIME STEP    1 IN STRESS PERIOD    1
                    SECONDS     MINUTES      HOURS       DAYS        YEARS
                    -----------------------------------------------------------
   TIME STEP LENGTH  86400.      1440.0      24.000      1.0000     2.73785E-03
 STRESS PERIOD TIME  86400.      1440.0      24.000      1.0000     2.73785E-03
         TOTAL TIME  86400.      1440.0      24.000      1.0000     2.73785E-03
1

 Run end date and time (yyyy/mm/dd hh:mm:ss): 2020/05/20 15:22:59
 Elapsed run time:  0.728 Seconds

