                                  MODFLOW-NWT-SWR1 
      U.S. GEOLOGICAL SURVEY MODULAR FINITE-DIFFERENCE GROUNDWATER-FLOW MODEL
                             VERSION 1.1.4 4/01/2018
                    BASED ON MODFLOW-2005 VERSION 1.12.00 02/03/2017

 LIST FILE: C:/GitHub/FUSE/Modflow/output/Bhima_transient.list
                         UNIT    2

 OPENING C:/GitHub/FUSE/Modflow/output/Bhima_transient.dis
 FILE TYPE:DIS   UNIT   11   STATUS:OLD    
 FORMAT:FORMATTED              ACCESS:SEQUENTIAL          

 OPENING C:/GitHub/FUSE/Modflow/output/Bhima_transient.bas
 FILE TYPE:BAS6   UNIT   13   STATUS:OLD    
 FORMAT:FORMATTED              ACCESS:SEQUENTIAL          

 OPENING C:/GitHub/FUSE/Modflow/output/Bhima_transient.upw
 FILE TYPE:UPW   UNIT   31   STATUS:OLD    
 FORMAT:FORMATTED              ACCESS:SEQUENTIAL          

 OPENING C:/GitHub/FUSE/Modflow/output/Bhima_transient.nwt
 FILE TYPE:NWT   UNIT   32   STATUS:OLD    
 FORMAT:FORMATTED              ACCESS:SEQUENTIAL          

 OPENING C:/GitHub/FUSE/Modflow/output/Bhima_transient.drn
 FILE TYPE:DRN   UNIT   21   STATUS:OLD    
 FORMAT:FORMATTED              ACCESS:SEQUENTIAL          

 OPENING C:/GitHub/FUSE/Modflow/output/Bhima_transient.wel
 FILE TYPE:WEL   UNIT   20   STATUS:OLD    
 FORMAT:FORMATTED              ACCESS:SEQUENTIAL          

 OPENING C:/GitHub/FUSE/Modflow/output/Bhima_transient.rch
 FILE TYPE:RCH   UNIT   19   STATUS:OLD    
 FORMAT:FORMATTED              ACCESS:SEQUENTIAL          

 OPENING C:/GitHub/FUSE/Modflow/output/Bhima_transient.oc
 FILE TYPE:OC   UNIT   14   STATUS:OLD    
 FORMAT:FORMATTED              ACCESS:SEQUENTIAL          

 OPENING C:/GitHub/FUSE/Modflow/output/Bhima_transient.hds
 FILE TYPE:DATA(BINARY)   UNIT   51   STATUS:REPLACE
 FORMAT:BINARY                 ACCESS:SEQUENTIAL          

 OPENING C:/GitHub/FUSE/Modflow/output/Bhima_transient.out
 FILE TYPE:DATA   UNIT   50   STATUS:UNKNOWN
 FORMAT:FORMATTED              ACCESS:SEQUENTIAL          

 BAS -- BASIC PACKAGE, VERSION 1.1.4, 4/01/2018 INPUT READ FROM UNIT   13
 
 MODFLOW was compiled using mixed precision
 Precision of REAL variables:           6
 Precision of DOUBLE PRECISION variables:          15

 DISCRETIZATION INPUT DATA READ FROM UNIT   11
 # DIS package for  MODFLOW-NWT, generated by Flopy.
    1 LAYERS       158 ROWS       342 COLUMNS
    1 STRESS PERIOD(S) IN SIMULATION
 MODEL TIME UNIT IS DAYS
 MODEL LENGTH UNIT IS METERS
  Confining bed flag for each layer:
   0

                     DELR =   500.000    

                     DELC =   500.000    



           TOP ELEVATION OF LAYER 1
 READING ON UNIT   11 WITH FORMAT: (342E15.6)          



             MODEL LAYER BOTTOM EL. FOR LAYER   1
 READING ON UNIT   11 WITH FORMAT: (342E15.6)          


 STRESS PERIOD     LENGTH       TIME STEPS     MULTIPLIER FOR DELT    SS FLAG
 ----------------------------------------------------------------------------
        1         1.000000          1                    1.000         TR

 TRANSIENT SIMULATION



 
 # BAS6 package for  MODFLOW-NWT, generated by Flopy.                            
 THE FREE FORMAT OPTION HAS BEEN SELECTED



                     BOUNDARY ARRAY FOR LAYER   1
 READING ON UNIT   13 WITH FORMAT: (342I10)            

 AQUIFER HEAD WILL BE SET TO  -999.99     AT ALL NO-FLOW NODES (IBOUND=0).



                       INITIAL HEAD FOR LAYER   1
 READING ON UNIT   13 WITH FORMAT: (342E15.6)          
 # OC package for  MODFLOW-NWT, generated by Flopy.

 OUTPUT CONTROL IS SPECIFIED ONLY AT TIME STEPS FOR WHICH OUTPUT IS DESIRED
 COMPACT CELL-BY-CELL BUDGET FILES WILL BE WRITTEN
 AUXILIARY DATA WILL BE SAVED IN CELL-BY-CELL BUDGET FILES
 HEAD PRINT FORMAT CODE IS   0    DRAWDOWN PRINT FORMAT CODE IS   0
 HEADS WILL BE SAVED ON UNIT   51    DRAWDOWNS WILL BE SAVED ON UNIT    0
 # NWT package for  MODFLOW-NWT, generated by Flopy.

 NWT1 -- Newton Solver, VERSION 1.1.4, 4/01/2018
         INPUT READ FROM UNIT 32

 COMPLEX OPTION:
 DEFAULT SOLVER INPUT VALUES REFLECT STRONGLY NONLINEAR MODEL
 ***GMRES linear solver will be used***
 
   CONVERGENCE CRITERION OF   0.100000E-01 FOR HEAD SOLUTION
   AND A TOLERANCE OF   0.500000E+03 FOR FLOW SOLUTION AND 
   A MAXIMUM OF   100 OUTER ITERATIONS. 


   D-B-D REDUCTION FACTOR OF    0.850000E+00 AND 
   A D-B-D INCREASE FACTOR OF    0.100000E-04 AND 
   A D-B-D RELAXATION OF    0.000000E+00 AND 
   A MOMENTUM FACTOR OF    0.100000E+00 .


   BACKTRACKING IS ACTIVE 
   THE MAXIMUM NUMBER OF BACKTRACKS IS    50 AND 
   THE BACKTRACKING TOLERANCE IS    0.110000E+01 AND
   THE BACKTRACKING REDUCTION FACTOR IS    0.700000E+00

 GMRES -- LINEAR SOLUTION BY GMRES PACKAGE 
     adapted for HYDROTHERM by Kipp and others (2008)
     using software originally developed by Saad (1990) 32
     using algorithms described in Saad (2003)

 UPW1 -- UPSTREAM WEIGHTING FLOW PACKAGE, VERSION 1.1.4, 4/01/2018
         INPUT READ FROM UNIT 31

 # UPW package for  MODFLOW-NWT, generated by Flopy.
 No named parameters

   LAYER FLAGS:
 LAYER       LAYTYP          LAYAVG    CHANI           LAYVKA           LAYWET
 ---------------------------------------------------------------------------
    1             1             0     1.000E+00             1             0

   INTERPRETATION OF LAYER FLAGS:
                        INTERBLOCK     HORIZONTAL    DATA IN
         LAYER TYPE   TRANSMISSIVITY   ANISOTROPY   ARRAY VKA   WETTABILITY
 LAYER   (LAYTYP)        (LAYAVG)      (CHANI)     (LAYVKA)       (LAYWET)
 ---------------------------------------------------------------------------
    1   CONVERTIBLE      HARMONIC     1.000E+00    ANISOTROPY  NON-WETTABLE



              HYD. COND. ALONG ROWS FOR LAYER   1
 READING ON UNIT   31 WITH FORMAT: (342E15.6)          

  HORIZ. TO VERTICAL ANI. =   5.00000     FOR LAYER   1



                   SPECIFIC STORAGE FOR LAYER   1
 READING ON UNIT   31 WITH FORMAT: (342E15.6)          



                     SPECIFIC YIELD FOR LAYER   1
 READING ON UNIT   31 WITH FORMAT: (342E15.6)          

 WEL -- WELL PACKAGE FOR NWT VERSION 1.1.4,  4/01/2018 INPUT READ FROM UNIT   20
 # WEL package for  MODFLOW-NWT, generated by Flopy.
 No named parameters
 MAXIMUM OF  10653 ACTIVE WELLS AT ONE TIME
 No named parameters
 
 NEGATIVE PUMPING RATES WILL BE REDUCED IF HEAD 
 FALLS WITHIN THE INTERVAL PHIRAMP TIMES THE CELL 
 THICKNESS. THE VALUE SPECIFIED FOR PHIRAMP IS  0.10000E+00
 WELLS WITH REDUCED PUMPING WILL BE REPORTED TO FILE UNIT NUMBER   50


     0 Well parameters

 DRN -- DRAIN PACKAGE, VERSION 7, 5/2/2005 INPUT READ FROM UNIT   21
 # DRN package for  MODFLOW-NWT, generated by Flopy.
 No named parameters
 MAXIMUM OF  54036 ACTIVE DRAINS AT ONE TIME
 LISTS OF DRAIN CELLS WILL NOT BE PRINTED


     0 Drain parameters

 RCH -- RECHARGE PACKAGE, VERSION 7, 5/2/2005 INPUT READ FROM UNIT   19
 # RCH package for  MODFLOW-NWT, generated by Flopy.
 No named parameters
 OPTION 3 -- RECHARGE TO HIGHEST ACTIVE NODE IN EACH VERTICAL COLUMN


     0 Recharge parameters
1
                            STRESS PERIOD NO.    1, LENGTH =   1.000000    
                            -----------------------------------------------

                              NUMBER OF TIME STEPS =     1

                               MULTIPLIER FOR DELT =     1.000

                            INITIAL TIME STEP SIZE =   1.000000    

 WELL NO.  LAYER   ROW   COL   STRESS RATE         
 --------------------------------------------------
      1      1     29      2      -2.116    
      2      1     30      2      -2.116    
      3      1     31      2      -4.232    
      4      1     29      3      -2.116    
      5      1     30      3      -2.116    
      6      1     31      3      -4.232    
      7      1     29      4      -2.116    
      8      1     30      4      -2.116    
      9      1     32      4      -2.116    
     10      1     33      4      -2.116    
     11      1     34      4      -2.116    
     12      1     35      4      -2.116    
     13      1     43      4      -2.602    
     14      1     44      4      -2.602    
     15      1     45      4      -2.602    
     16      1     46      4      -2.602    
     17      1     29      5      -2.116    
     18      1     30      5      -2.116    
     19      1     32      5      -2.116    
     20      1     33      5      -2.116    
     21      1     34      5      -2.116    
     22      1     35      5      -2.116    
     23      1     43      5      -2.602    
     24      1     44      5      -2.602    
     25      1     45      5      -2.602    
     26      1     46      5      -2.602    
     27      1     29      6      -2.116    
     28      1     30      6      -2.116    
     29      1     32      6      -2.116    
     30      1     33      6      -2.116    
     31      1     34      6      -2.116    
     32      1     35      6      -2.116    
     33      1     36      6      -2.116    
     34      1     37      6      -2.116    
     35      1     40      6      -2.602    
     36      1     41      6      -2.602    
     37      1     42      6      -5.204    
     38      1     45      6      -2.602    
     39      1     46      6      -2.602    
     40      1     29      7      -2.116    
     41      1     30      7      -2.116    
     42      1     32      7      -2.116    
     43      1     33      7      -2.116    
     44      1     34      7      -2.116    
     45      1     35      7      -2.116    
     46      1     36      7      -2.116    
     47      1     37      7      -2.116    
     48      1     40      7      -2.602    
     49      1     41      7      -2.602    
     50      1     42      7      -5.204    
     51      1     45      7      -2.602    
     52      1     46      7      -2.602    
     53      1     27      8      -2.116    
     54      1     28      8      -2.116    
     55      1     29      8      -2.116    
     56      1     30      8      -2.116    
     57      1     32      8      -4.232    
     58      1     33      8      -4.232    
     59      1     34      8      -4.232    
     60      1     35      8      -4.232    
     61      1     36      8      -4.232    
     62      1     37      8      -4.232    
     63      1     40      8      -5.204    
     64      1     41      8      -5.204    
     65      1     42      8      -10.41    
     66      1     43      8     -0.5199    
     67      1     44      8     -0.5199    
     68      1     27      9      -2.116    
     69      1     28      9      -2.116    
     70      1     29      9      -2.116    
     71      1     30      9      -2.116    
     72      1     32      9      -2.116    
     73      1     33      9      -2.116    
     74      1     34      9      -2.116    
     75      1     35      9      -2.116    
     76      1     36      9      -2.116    
     77      1     37      9      -2.116    
     78      1     38      9      -2.116    
     79      1     39      9      -2.116    
     80      1     42      9      -5.204    
     81      1     43      9      -2.602    
     82      1     44      9      -2.602    
     83      1     25     10      -4.231    
     84      1     26     10      -4.231    
     85      1     32     10      -2.116    
     86      1     33     10      -2.116    
     87      1     34     10      -2.116    
     88      1     35     10      -2.116    
     89      1     36     10      -2.116    
     90      1     37     10      -2.116    
     91      1     38     10      -2.116    
     92      1     39     10      -2.116    
     93      1     42     10      -5.204    
     94      1     43     10      -2.602    
     95      1     44     10      -2.602    
     96      1     25     11      -2.116    
     97      1     26     11      -2.116    
     98      1     27     11      -2.116    
     99      1     28     11      -2.116    
    100      1     32     11      -2.116    
    101      1     33     11      -2.116    
    102      1     34     11      -2.116    
    103      1     35     11      -2.116    
    104      1     43     11      -3.470    
    105      1     44     11      -3.470    
    106      1     45     11      -2.602    
    107      1     46     11      -2.602    
    108      1     25     12      -2.116    
    109      1     26     12      -2.116    
    110      1     27     12      -2.116    
    111      1     28     12      -2.116    
    112      1     32     12      -2.116    
    113      1     33     12      -2.116    
    114      1     34     12      -2.116    
    115      1     35     12      -2.116    
    116      1     44     12      -3.470    
    117      1     45     12      -2.602    
    118      1     46     12      -2.602    
    119      1     23     13      -5.710    
    120      1     24     13      -5.710    
    121      1     25     13      -5.710    
    122      1     26     13      -5.710    
    123      1     27     13      -5.710    
    124      1     28     13      -5.710    
    125      1     31     13      -11.42    
    126      1     32     13      -5.711    
    127      1     33     13      -5.711    
    128      1     34     13      -5.712    
    129      1     35     13      -5.712    
    130      1     36     13     -0.5672    
    131      1     37     13     -0.5672    
    132      1     38     13      -5.712    
    133      1     39     13      -5.712    
    134      1     40     13      -2.544    
    135      1     41     13      -2.544    
    136      1     42     13      -2.544    
    137      1     43     13      -2.544    
    138      1     47     13      -2.544    
    139      1     48     13      -2.544    
    140      1     23     14      -5.710    
    141      1     24     14      -5.710    
    142      1     25     14      -5.710    
    143      1     26     14      -5.710    
    144      1     27     14      -5.710    
    145      1     28     14      -5.710    
    146      1     31     14      -11.42    
    147      1     32     14      -5.711    
    148      1     33     14      -5.711    
    149      1     34     14      -5.712    
    150      1     35     14      -5.712    
    151      1     36     14     -0.5672    
    152      1     37     14     -0.5672    
    153      1     38     14      -5.712    
    154      1     39     14      -5.712    
    155      1     40     14      -2.544    
    156      1     41     14      -2.544    
    157      1     42     14      -2.544    
    158      1     43     14      -2.544    
    159      1     47     14      -2.544    
    160      1     48     14      -2.544    
    161      1     21     15      -5.710    
    162      1     22     15      -5.710    
    163      1     23     15      -5.710    
    164      1     24     15      -5.710    
    165      1     27     15      -5.710    
    166      1     28     15      -5.710    
    167      1     31     15      -11.42    
    168      1     32     15      -5.711    
    169      1     33     15      -5.711    
    170      1     34     15      -5.712    
    171      1     35     15      -5.712    
    172      1     36     15      -5.712    
    173      1     37     15      -5.712    
    174      1     40     15      -5.087    
    175      1     41     15      -5.087    
    176      1     42     15      -5.088    
    177      1     43     15      -5.088    
    178      1     44     15      -10.18    
    179      1     45     15     -0.4986    
    180      1     46     15     -0.4986    
    181      1     47     15      -5.088    
    182      1     48     15      -5.088    
    183      1     51     15      -5.089    
    184      1     52     15      -5.089    
    185      1     21     16      -5.710    
    186      1     22     16      -5.710    
    187      1     23     16      -5.710    
    188      1     24     16      -5.710    
    189      1     27     16      -5.710    
    190      1     28     16      -5.710    
    191      1     31     16      -11.42    
    192      1     32     16      -5.711    
    193      1     33     16      -5.711    
    194      1     34     16      -5.712    
    195      1     35     16      -5.712    
    196      1     36     16      -5.712    
    197      1     37     16      -5.712    
    198      1     38     16      -5.712    
    199      1     39     16      -5.712    
    200      1     44     16     -0.4986    
    201      1     47     16      -2.544    
    202      1     48     16      -2.544    
    203      1     49     16     -0.2493    
    204      1     50     16     -0.2493    
    205      1     51     16     -0.2494    
    206      1     52     16     -0.2494    
    207      1     21     17      -11.42    
    208      1     22     17      -11.42    
    209      1     23     17      -11.42    
    210      1     24     17      -11.42    
    211      1     27     17      -11.42    
    212      1     28     17      -11.42    
    213      1     34     17      -11.42    
    214      1     35     17      -11.42    
    215      1     36     17      -11.42    
    216      1     37     17      -11.42    
    217      1     38     17      -5.712    
    218      1     39     17      -5.712    
    219      1     44     17     -0.4986    
    220      1     47     17      -2.544    
    221      1     48     17      -2.544    
    222      1     49     17     -0.2493    
    223      1     50     17     -0.2493    
    224      1     51     17     -0.2494    
    225      1     52     17     -0.2494    
    226      1     21     18      -5.710    
    227      1     22     18      -5.710    
    228      1     27     18     -0.5671    
    229      1     28     18     -0.5671    
    230      1     31     18      -11.42    
    231      1     32     18      -5.711    
    232      1     33     18      -5.711    
    233      1     34     18      -5.712    
    234      1     35     18      -5.712    
    235      1     36     18      -5.712    
    236      1     37     18      -5.712    
    237      1     38     18      -5.712    
    238      1     39     18      -5.712    
    239      1     42     18      -2.544    
    240      1     43     18      -2.544    
    241      1     47     18      -2.544    
    242      1     48     18      -2.544    
    243      1     49     18     -0.2493    
    244      1     50     18     -0.2493    
    245      1     21     19      -5.710    
    246      1     22     19      -5.710    
    247      1     27     19     -0.5671    
    248      1     28     19     -0.5671    
    249      1     31     19      -11.42    
    250      1     32     19      -5.711    
    251      1     33     19      -5.711    
    252      1     34     19      -5.712    
    253      1     35     19      -5.712    
    254      1     36     19      -5.712    
    255      1     37     19      -5.712    
    256      1     38     19      -5.712    
    257      1     39     19      -5.712    
    258      1     42     19      -2.544    
    259      1     43     19      -2.544    
    260      1     47     19      -2.544    
    261      1     48     19      -2.544    
    262      1     49     19     -0.2493    
    263      1     50     19     -0.2493    
    264      1     21     20      -5.710    
    265      1     22     20      -5.710    
    266      1     23     20      -5.710    
    267      1     24     20      -5.710    
    268      1     29     20     -0.5671    
    269      1     30     20     -0.5671    
    270      1     31     20      -7.615    
    271      1     32     20      -7.615    
    272      1     33     20      -7.615    
    273      1     34     20      -5.712    
    274      1     35     20      -5.712    
    275      1     36     20      -5.712    
    276      1     37     20      -5.712    
    277      1     38     20      -5.712    
    278      1     39     20      -5.712    
    279      1     40     20      -2.544    
    280      1     41     20      -2.544    
    281      1     47     20      -2.544    
    282      1     48     20      -2.544    
    283      1     49     20      -2.544    
    284      1     50     20      -2.544    
    285      1     53     20      -2.545    
    286      1     54     20      -2.545    
    287      1     73     20      -3.759    
    288      1     74     20      -3.759    
    289      1     21     21      -5.710    
    290      1     22     21      -5.710    
    291      1     23     21      -5.710    
    292      1     24     21      -5.710    
    293      1     29     21     -0.5671    
    294      1     30     21     -0.5671    
    295      1     31     21      -7.615    
    296      1     32     21      -7.615    
    297      1     33     21      -7.615    
    298      1     34     21      -5.712    
    299      1     35     21      -5.712    
    300      1     36     21      -5.712    
    301      1     37     21      -5.712    
    302      1     38     21      -5.712    
    303      1     39     21      -5.712    
    304      1     40     21      -2.544    
    305      1     41     21      -2.544    
    306      1     47     21      -2.544    
    307      1     48     21      -2.544    
    308      1     49     21      -2.544    
    309      1     50     21      -2.544    
    310      1     53     21      -2.545    
    311      1     54     21      -2.545    
    312      1     73     21      -3.759    
    313      1     74     21      -3.759    
    314      1     76     21      -5.013    
    315      1     77     21      -57.70    
    316      1     78     21      -57.70    
    317      1     79     21      -3.377    
    318      1     21     22      -5.710    
    319      1     22     22      -5.710    
    320      1     29     22      -5.711    
    321      1     30     22      -5.711    
    322      1     31     22      -5.711    
    323      1     32     22      -5.711    
    324      1     33     22      -11.42    
    325      1     34     22      -5.712    
    326      1     35     22      -5.712    
    327      1     38     22      -5.712    
    328      1     39     22      -5.712    
    329      1     40     22      -2.544    
    330      1     41     22      -2.544    
    331      1     44     22      -10.18    
    332      1     47     22      -5.088    
    333      1     48     22      -5.088    
    334      1     49     22      -5.089    
    335      1     50     22      -5.089    
    336      1     53     22      -5.089    
    337      1     54     22      -5.089    
    338      1     71     22      -7.519    
    339      1     72     22      -7.519    
    340      1     75     22      -5.013    
    341      1     76     22      -5.013    
    342      1     77     22      -57.70    
    343      1     78     22      -57.70    
    344      1     79     22      -3.377    
    345      1     21     23      -5.710    
    346      1     22     23      -5.710    
    347      1     29     23      -5.711    
    348      1     30     23      -5.711    
    349      1     31     23      -5.711    
    350      1     32     23      -5.711    
    351      1     33     23      -11.42    
    352      1     34     23      -5.712    
    353      1     35     23      -5.712    
    354      1     38     23      -5.712    
    355      1     39     23      -5.712    
    356      1     40     23      -2.544    
    357      1     41     23      -2.544    
    358      1     47     23      -2.544    
    359      1     48     23      -2.544    
    360      1     49     23      -2.544    
    361      1     50     23      -2.544    
    362      1     51     23      -2.544    
    363      1     52     23      -2.544    
    364      1     71     23      -3.759    
    365      1     72     23      -3.759    
    366      1     75     23      -3.760    
    367      1     76     23      -3.760    
    368      1     77     23      -1.688    
    369      1     78     23      -1.688    
    370      1     79     23     -0.3377    
    371      1     80     23      -1.689    
    372      1     81     23      -1.689    
    373      1     82     23      -57.82    
    374      1     83     23      -57.82    
    375      1     21     24      -11.42    
    376      1     22     24      -11.42    
    377      1     23     24      -11.42    
    378      1     24     24      -11.42    
    379      1     25     24      -11.42    
    380      1     26     24      -11.42    
    381      1     31     24      -11.42    
    382      1     32     24      -11.42    
    383      1     33     24      -22.85    
    384      1     34     24      -11.42    
    385      1     35     24      -11.42    
    386      1     38     24      -11.42    
    387      1     39     24      -11.42    
    388      1     40     24      -5.087    
    389      1     41     24      -5.087    
    390      1     42     24      -5.088    
    391      1     43     24      -5.088    
    392      1     47     24      -2.544    
    393      1     48     24      -2.544    
    394      1     49     24      -2.544    
    395      1     50     24      -2.544    
    396      1     51     24      -2.544    
    397      1     52     24      -2.544    
    398      1     71     24      -3.759    
    399      1     72     24      -3.759    
    400      1     75     24      -3.760    
    401      1     76     24      -3.760    
    402      1     77     24      -1.688    
    403      1     78     24      -1.688    
    404      1     79     24     -0.3377    
    405      1     80     24      -1.689    
    406      1     81     24      -1.689    
    407      1     82     24      -57.82    
    408      1     83     24      -57.82    
    409      1     21     25      -5.710    
    410      1     22     25      -5.710    
    411      1     23     25      -5.710    
    412      1     24     25      -5.710    
    413      1     25     25      -5.710    
    414      1     26     25      -5.710    
    415      1     31     25      -5.711    
    416      1     32     25      -5.711    
    417      1     33     25      -11.42    
    418      1     34     25      -5.712    
    419      1     35     25      -5.712    
    420      1     36     25      -5.712    
    421      1     37     25      -5.712    
    422      1     38     25     -0.5672    
    423      1     39     25     -0.5672    
    424      1     40     25      -2.544    
    425      1     41     25      -2.544    
    426      1     44     25      -5.088    
    427      1     49     25      -2.544    
    428      1     50     25      -2.544    
    429      1     51     25      -2.544    
    430      1     52     25      -2.544    
    431      1     55     25      -2.545    
    432      1     56     25      -2.545    
    433      1     69     25      -3.759    
    434      1     70     25      -3.759    
    435      1     71     25      -3.759    
    436      1     72     25      -3.759    
    437      1     75     25      -3.760    
    438      1     76     25      -3.760    
    439      1     79     25     -0.2251    
    440      1     80     25      -2.251    
    441      1     81     25      -2.251    
    442      1     21     26      -5.710    
    443      1     22     26      -5.710    
    444      1     23     26      -5.710    
    445      1     24     26      -5.710    
    446      1     25     26      -5.710    
    447      1     26     26      -5.710    
    448      1     31     26      -5.711    
    449      1     32     26      -5.711    
    450      1     33     26      -11.42    
    451      1     34     26      -5.712    
    452      1     35     26      -5.712    
    453      1     36     26      -5.712    
    454      1     37     26      -5.712    
    455      1     38     26     -0.5672    
    456      1     39     26     -0.5672    
    457      1     40     26      -2.544    
    458      1     41     26      -2.544    
    459      1     44     26      -5.088    
    460      1     49     26      -2.544    
    461      1     50     26      -2.544    
    462      1     51     26      -2.544    
    463      1     52     26      -2.544    
    464      1     55     26      -2.545    
    465      1     56     26      -2.545    
    466      1     69     26      -3.759    
    467      1     70     26      -3.759    
    468      1     71     26      -3.759    
    469      1     72     26      -3.759    
    470      1     75     26      -3.760    
    471      1     76     26      -3.760    
    472      1     79     26     -0.2251    
    473      1     80     26     -0.2251    
    474      1     81     26      -2.251    
    475      1     20     27      -15.38    
    476      1     21     27      -5.710    
    477      1     22     27      -5.710    
    478      1     25     27      -5.710    
    479      1     26     27      -5.710    
    480      1     29     27      -5.711    
    481      1     30     27      -5.711    
    482      1     31     27      -5.711    
    483      1     32     27      -5.711    
    484      1     33     27      -11.42    
    485      1     34     27      -5.712    
    486      1     35     27      -5.712    
    487      1     36     27      -5.712    
    488      1     37     27      -5.712    
    489      1     40     27      -2.544    
    490      1     41     27      -2.544    
    491      1     42     27      -2.544    
    492      1     43     27      -2.544    
    493      1     45     27      -2.544    
    494      1     46     27      -2.544    
    495      1     47     27      -2.544    
    496      1     48     27      -2.544    
    497      1     51     27     -0.2494    
    498      1     52     27     -0.2494    
    499      1     55     27      -2.545    
    500      1     56     27      -2.545    
    501      1     66     27      -3.759    
    502      1     67     27      -3.759    
    503      1     68     27      -7.518    
    504      1     71     27      -3.759    
    505      1     72     27      -3.759    
    506      1     75     27      -3.760    
    507      1     76     27      -3.760    
    508      1     81     27      -118.4    
    509      1     82     27      -57.83    
    510      1     83     27      -57.83    
    511      1     84     27      -3.377    
    512      1     85     27      -3.377    
    513      1     20     28      -15.38    
    514      1     21     28      -5.710    
    515      1     22     28      -5.710    
    516      1     25     28      -5.710    
    517      1     26     28      -5.710    
    518      1     29     28      -5.711    
    519      1     30     28      -5.711    
    520      1     31     28      -5.711    
    521      1     32     28      -5.711    
    522      1     33     28      -11.42    
    523      1     34     28      -5.712    
    524      1     35     28      -5.712    
    525      1     36     28      -5.712    
    526      1     37     28      -5.712    
    527      1     40     28      -2.544    
    528      1     41     28      -2.544    
    529      1     42     28      -2.544    
    530      1     43     28      -2.544    
    531      1     45     28      -2.544    
    532      1     46     28      -2.544    
    533      1     47     28      -2.544    
    534      1     48     28      -2.544    
    535      1     51     28     -0.2494    
    536      1     52     28     -0.2494    
    537      1     55     28      -2.545    
    538      1     56     28      -2.545    
    539      1     66     28      -3.759    
    540      1     67     28      -3.759    
    541      1     68     28      -7.518    
    542      1     71     28      -3.759    
    543      1     72     28      -3.759    
    544      1     75     28      -3.760    
    545      1     76     28      -3.760    
    546      1     81     28      -118.4    
    547      1     82     28      -57.83    
    548      1     83     28      -57.83    
    549      1     84     28      -57.64    
    550      1     85     28      -57.64    
    551      1     86     28      -74.69    
    552      1     87     28      -74.69    
    553      1     20     29      -10.25    
    554      1     21     29      -7.613    
    555      1     22     29      -7.613    
    556      1     29     29      -5.711    
    557      1     30     29      -5.711    
    558      1     31     29      -5.711    
    559      1     32     29      -5.711    
    560      1     33     29      -11.42    
    561      1     40     29      -2.544    
    562      1     41     29      -2.544    
    563      1     42     29      -2.544    
    564      1     43     29      -2.544    
    565      1     44     29      -5.088    
    566      1     45     29      -2.544    
    567      1     46     29      -2.544    
    568      1     47     29      -2.544    
    569      1     48     29      -2.544    
    570      1     51     29     -0.4987    
    571      1     52     29     -0.4987    
    572      1     55     29     -0.4987    
    573      1     56     29     -0.4987    
    574      1     66     29      -7.518    
    575      1     67     29      -7.518    
    576      1     77     29      -3.377    
    577      1     78     29      -3.377    
    578      1     79     29      -3.377    
    579      1     80     29      -3.377    
    580      1     81     29      -231.0    
    581      1     82     29      -115.3    
    582      1     83     29      -115.3    
    583      1     84     29      -57.64    
    584      1     85     29      -57.64    
    585      1     86     29      -74.69    
    586      1     87     29      -74.69    
    587      1     20     30      -10.25    
    588      1     21     30      -10.25    
    589      1     22     30      -7.613    
    590      1     29     30      -5.711    
    591      1     30     30      -5.711    
    592      1     31     30      -5.711    
    593      1     32     30      -5.711    
    594      1     33     30      -11.42    
    595      1     40     30      -2.544    
    596      1     41     30      -2.544    
    597      1     42     30      -2.544    
    598      1     43     30      -2.544    
    599      1     44     30      -5.088    
    600      1     45     30      -2.544    
    601      1     46     30      -2.544    
    602      1     47     30      -2.544    
    603      1     48     30      -2.544    
    604      1     53     30     -0.2596    
    605      1     54     30     -0.2596    
    606      1     66     30      -4.606    
    607      1     67     30      -4.606    
    608      1     68     30      -9.212    
    609      1     69     30      -4.606    
    610      1     70     30      -4.606    
    611      1     75     30      -4.607    
    612      1     76     30      -4.607    
    613      1     77     30      -3.761    
    614      1     78     30      -3.761    
    615      1     79     30      -3.761    
    616      1     80     30      -3.761    
    617      1     81     30      -422.8    
    618      1     82     30      -3.762    
    619      1     83     30      -3.762    
    620      1     86     30      -3.762    
    621      1     87     30      -3.762    
    622      1     20     31      -18.44    
    623      1     21     31      -18.44    
    624      1     22     31      -28.57    
    625      1     31     31      -14.29    
    626      1     32     31      -14.29    
    627      1     33     31      -28.58    
    628      1     38     31      -14.29    
    629      1     39     31      -14.29    
    630      1     40     31      -5.747    
    631      1     41     31      -5.747    
    632      1     42     31      -5.748    
    633      1     43     31      -5.748    
    634      1     44     31      -11.50    
    635      1     45     31      -5.748    
    636      1     46     31      -5.748    
    637      1     47     31      -5.749    
    638      1     48     31      -5.749    
    639      1     49     31      -5.749    
    640      1     50     31      -5.749    
    641      1     53     31     -0.2596    
    642      1     54     31     -0.2596    
    643      1     66     31      -4.606    
    644      1     67     31      -4.606    
    645      1     68     31      -9.212    
    646      1     69     31      -4.606    
    647      1     70     31      -4.606    
    648      1     75     31      -4.607    
    649      1     76     31      -4.607    
    650      1     77     31      -3.761    
    651      1     78     31      -3.761    
    652      1     79     31      -3.761    
    653      1     80     31      -3.761    
    654      1     81     31      -422.8    
    655      1     82     31      -3.762    
    656      1     83     31      -3.762    
    657      1     86     31      -3.762    
    658      1     87     31      -3.762    
    659      1     22     32      -14.29    
    660      1     23     32      -7.143    
    661      1     24     32      -7.143    
    662      1     25     32      -7.143    
    663      1     26     32      -7.143    
    664      1     31     32      -7.144    
    665      1     32     32      -7.144    
    666      1     33     32      -14.29    
    667      1     36     32      -7.145    
    668      1     37     32      -7.145    
    669      1     38     32      -7.146    
    670      1     39     32      -7.146    
    671      1     40     32      -2.874    
    672      1     41     32      -2.874    
    673      1     42     32      -2.874    
    674      1     43     32      -2.874    
    675      1     45     32      -3.832    
    676      1     46     32      -3.832    
    677      1     47     32      -2.874    
    678      1     48     32      -2.874    
    679      1     49     32      -2.874    
    680      1     50     32      -2.874    
    681      1     55     32     -0.2596    
    682      1     56     32     -0.2596    
    683      1     57     32      -5.750    
    684      1     66     32      -4.606    
    685      1     67     32      -4.606    
    686      1     68     32      -9.212    
    687      1     69     32      -4.606    
    688      1     70     32      -4.606    
    689      1     75     32      -4.607    
    690      1     76     32      -4.607    
    691      1     77     32      -3.761    
    692      1     78     32      -3.761    
    693      1     79     32     -0.3686    
    694      1     80     32     -0.3686    
    695      1     81     32     -0.7373    
    696      1     84     32      -3.762    
    697      1     85     32      -3.762    
    698      1     86     32      -3.762    
    699      1     87     32      -3.762    
    700      1     22     33      -14.29    
    701      1     23     33      -7.143    
    702      1     24     33      -7.143    
    703      1     25     33      -7.143    
    704      1     26     33      -7.143    
    705      1     31     33      -7.144    
    706      1     32     33      -7.144    
    707      1     33     33      -14.29    
    708      1     36     33      -7.145    
    709      1     37     33      -7.145    
    710      1     38     33      -7.146    
    711      1     39     33      -7.146    
    712      1     40     33      -2.874    
    713      1     41     33      -2.874    
    714      1     42     33      -2.874    
    715      1     43     33      -2.874    
    716      1     46     33      -3.832    
    717      1     47     33      -2.874    
    718      1     48     33      -2.874    
    719      1     49     33      -2.874    
    720      1     50     33      -2.874    
    721      1     55     33     -0.2596    
    722      1     56     33     -0.2596    
    723      1     57     33      -5.750    
    724      1     66     33      -4.606    
    725      1     67     33      -4.606    
    726      1     68     33      -9.212    
    727      1     69     33      -4.606    
    728      1     70     33      -4.606    
    729      1     75     33      -4.607    
    730      1     76     33      -4.607    
    731      1     77     33      -3.761    
    732      1     78     33      -3.761    
    733      1     79     33     -0.3686    
    734      1     80     33     -0.3686    
    735      1     81     33     -0.7373    
    736      1     84     33      -3.762    
    737      1     85     33      -3.762    
    738      1     86     33      -3.762    
    739      1     87     33      -3.762    
    740      1     23     34      -7.143    
    741      1     24     34      -7.143    
    742      1     25     34      -7.143    
    743      1     26     34      -7.143    
    744      1     31     34      -7.144    
    745      1     32     34      -7.144    
    746      1     33     34      -14.29    
    747      1     36     34      -7.145    
    748      1     37     34      -7.145    
    749      1     38     34      -7.146    
    750      1     39     34      -7.146    
    751      1     40     34      -2.874    
    752      1     41     34      -2.874    
    753      1     42     34      -2.874    
    754      1     43     34      -2.874    
    755      1     44     34      -2.874    
    756      1     45     34      -2.874    
    757      1     49     34      -2.874    
    758      1     50     34      -2.874    
    759      1     51     34     -0.2596    
    760      1     52     34     -0.2596    
    761      1     57     34     -0.5192    
    762      1     62     34      -4.606    
    763      1     63     34      -4.606    
    764      1     64     34      -4.606    
    765      1     65     34      -4.606    
    766      1     66     34      -4.606    
    767      1     67     34      -4.606    
    768      1     68     34      -9.212    
    769      1     69     34      -4.606    
    770      1     70     34      -4.606    
    771      1     71     34     -0.4588    
    772      1     72     34     -0.4588    
    773      1     75     34      -4.607    
    774      1     76     34      -4.607    
    775      1     79     34      -3.761    
    776      1     80     34      -3.761    
    777      1     81     34      -7.523    
    778      1     82     34      -3.762    
    779      1     83     34      -3.762    
    780      1     84     34      -3.762    
    781      1     85     34      -3.762    
    782      1     23     35      -7.143    
    783      1     24     35      -7.143    
    784      1     25     35      -7.143    
    785      1     26     35      -7.143    
    786      1     31     35      -7.144    
    787      1     32     35      -7.144    
    788      1     33     35      -14.29    
    789      1     36     35      -7.145    
    790      1     37     35      -7.145    
    791      1     38     35      -7.146    
    792      1     39     35      -7.146    
    793      1     40     35      -2.874    
    794      1     41     35      -2.874    
    795      1     42     35      -2.874    
    796      1     43     35      -2.874    
    797      1     44     35      -2.874    
    798      1     45     35      -2.874    
    799      1     49     35      -2.874    
    800      1     50     35      -2.874    
    801      1     51     35     -0.2596    
    802      1     52     35     -0.2596    
    803      1     57     35     -0.5192    
    804      1     62     35      -4.606    
    805      1     63     35      -4.606    
    806      1     64     35      -4.606    
    807      1     65     35      -4.606    
    808      1     66     35      -4.606    
    809      1     67     35      -4.606    
    810      1     68     35      -9.212    
    811      1     69     35      -4.606    
    812      1     70     35      -4.606    
    813      1     71     35     -0.4588    
    814      1     72     35     -0.4588    
    815      1     75     35      -4.607    
    816      1     76     35      -4.607    
    817      1     79     35      -3.761    
    818      1     80     35      -3.761    
    819      1     81     35      -7.523    
    820      1     82     35      -3.762    
    821      1     83     35      -3.762    
    822      1     84     35      -3.762    
    823      1     85     35      -3.762    
    824      1     23     36      -7.143    
    825      1     24     36      -7.143    
    826      1     25     36      -7.143    
    827      1     26     36      -7.143    
    828      1     27     36      -7.144    
    829      1     28     36      -7.144    
    830      1     31     36      -7.144    
    831      1     32     36      -7.144    
    832      1     33     36      -14.29    
    833      1     36     36      -7.145    
    834      1     37     36      -7.145    
    835      1     38     36      -7.146    
    836      1     39     36      -7.146    
    837      1     40     36      -2.874    
    838      1     41     36      -2.874    
    839      1     42     36      -2.874    
    840      1     43     36      -2.874    
    841      1     44     36      -2.874    
    842      1     45     36      -2.874    
    843      1     46     36      -5.748    
    844      1     49     36      -2.874    
    845      1     50     36      -2.874    
    846      1     53     36     -0.2596    
    847      1     54     36     -0.2596    
    848      1     55     36      -2.875    
    849      1     56     36      -2.875    
    850      1     57     36      -5.750    
    851      1     58     36      -9.210    
    852      1     59     36      -9.210    
    853      1     60     36      -9.211    
    854      1     61     36      -9.211    
    855      1     62     36      -9.211    
    856      1     63     36      -9.211    
    857      1     64     36      -9.212    
    858      1     65     36      -9.212    
    859      1     66     36      -9.212    
    860      1     67     36      -9.212    
    861      1     68     36      -9.212    
    862      1     69     36      -9.212    
    863      1     75     36     -0.9177    
    864      1     76     36     -0.9177    
    865      1     77     36     -0.7372    
    866      1     78     36     -0.7372    
    867      1     79     36      -7.523    
    868      1     80     36      -7.523    
    869      1     81     36      -15.05    
    870      1     82     36      -7.523    
    871      1     83     36      -7.523    
    872      1     23     37      -7.143    
    873      1     24     37      -7.143    
    874      1     25     37      -7.143    
    875      1     26     37      -7.143    
    876      1     27     37      -7.144    
    877      1     28     37      -7.144    
    878      1     31     37      -7.144    
    879      1     32     37      -7.144    
    880      1     33     37      -14.29    
    881      1     36     37      -7.145    
    882      1     37     37      -7.145    
    883      1     38     37      -7.146    
    884      1     39     37      -7.146    
    885      1     40     37      -2.874    
    886      1     41     37      -2.874    
    887      1     42     37      -2.874    
    888      1     43     37      -2.874    
    889      1     44     37      -2.874    
    890      1     45     37      -2.874    
    891      1     46     37      -5.748    
    892      1     49     37      -2.874    
    893      1     50     37      -2.874    
    894      1     53     37     -0.2596    
    895      1     54     37     -0.2596    
    896      1     55     37      -2.875    
    897      1     56     37      -2.875    
    898      1     57     37      -5.750    
    899      1     58     37      -4.605    
    900      1     59     37      -4.605    
    901      1     60     37      -4.605    
    902      1     61     37      -4.605    
    903      1     62     37      -4.606    
    904      1     63     37      -4.606    
    905      1     68     37      -4.606    
    906      1     69     37      -4.606    
    907      1     70     37      -9.213    
    908      1     71     37      -4.607    
    909      1     72     37      -4.607    
    910      1     77     37      -3.761    
    911      1     78     37      -3.761    
    912      1     79     37      -3.761    
    913      1     80     37      -3.761    
    914      1     81     37      -7.523    
    915      1     82     37      -3.762    
    916      1     83     37      -3.762    
    917      1     23     38      -7.143    
    918      1     24     38      -7.143    
    919      1     25     38      -14.29    
    920      1     26     38      -14.29    
    921      1     27     38      -14.29    
    922      1     28     38      -14.29    
    923      1     31     38      -1.413    
    924      1     32     38      -1.413    
    925      1     33     38      -28.58    
    926      1     36     38      -14.29    
    927      1     37     38      -14.29    
    928      1     40     38      -5.747    
    929      1     41     38      -5.747    
    930      1     42     38      -5.748    
    931      1     43     38      -5.748    
    932      1     44     38      -5.748    
    933      1     45     38      -5.748    
    934      1     49     38     -0.5191    
    935      1     50     38     -0.5191    
    936      1     53     38      -5.749    
    937      1     54     38      -5.749    
    938      1     55     38      -5.750    
    939      1     56     38      -5.750    
    940      1     57     38      -11.50    
    941      1     58     38      -4.605    
    942      1     59     38      -4.605    
    943      1     60     38      -4.605    
    944      1     61     38      -4.605    
    945      1     62     38      -4.606    
    946      1     63     38      -4.606    
    947      1     68     38      -4.606    
    948      1     69     38      -4.606    
    949      1     70     38      -9.213    
    950      1     71     38      -4.607    
    951      1     72     38      -4.607    
    952      1     77     38      -3.761    
    953      1     78     38      -3.761    
    954      1     79     38      -3.761    
    955      1     80     38      -3.761    
    956      1     81     38      -7.523    
    957      1     82     38      -3.762    
    958      1     83     38      -3.762    
    959      1     23     39      -7.143    
    960      1     24     39      -7.143    
    961      1     25     39      -7.143    
    962      1     26     39      -7.143    
    963      1     27     39      -7.144    
    964      1     28     39      -7.144    
    965      1     33     39      -14.29    
    966      1     36     39     -0.7067    
    967      1     37     39     -0.7067    
    968      1     40     39      -2.874    
    969      1     41     39      -2.874    
    970      1     42     39      -2.874    
    971      1     43     39      -2.874    
    972      1     44     39      -2.874    
    973      1     45     39      -2.874    
    974      1     46     39      -5.748    
    975      1     47     39     -0.2595    
    976      1     48     39     -0.2595    
    977      1     51     39     -0.2596    
    978      1     52     39     -0.2596    
    979      1     57     39      -5.750    
    980      1     58     39      -4.605    
    981      1     59     39      -4.605    
    982      1     60     39      -4.605    
    983      1     61     39      -4.605    
    984      1     62     39     -0.4587    
    985      1     63     39     -0.4587    
    986      1     64     39     -0.4587    
    987      1     65     39     -0.4587    
    988      1     70     39      -9.213    
    989      1     71     39      -4.607    
    990      1     72     39      -4.607    
    991      1     75     39      -4.607    
    992      1     76     39      -4.607    
    993      1     81     39      -447.5    
    994      1     82     39      -3.762    
    995      1     83     39      -3.762    
    996      1     23     40      -14.29    
    997      1     24     40      -14.29    
    998      1     25     40      -7.143    
    999      1     26     40      -7.143    
   1000      1     27     40      -7.144    
   1001      1     28     40      -7.144    
   1002      1     33     40      -14.29    
   1003      1     36     40     -0.7067    
   1004      1     37     40     -0.7067    
   1005      1     40     40      -2.874    
   1006      1     41     40      -2.874    
   1007      1     42     40      -2.874    
   1008      1     43     40      -2.874    
   1009      1     44     40      -2.874    
   1010      1     45     40      -2.874    
   1011      1     46     40      -5.748    
   1012      1     47     40     -0.2595    
   1013      1     48     40     -0.2595    
   1014      1     51     40     -0.2596    
   1015      1     52     40     -0.2596    
   1016      1     57     40      -5.750    
   1017      1     58     40      -4.605    
   1018      1     59     40      -4.605    
   1019      1     60     40      -4.605    
   1020      1     61     40      -4.605    
   1021      1     62     40     -0.4587    
   1022      1     63     40     -0.4587    
   1023      1     64     40     -0.4587    
   1024      1     65     40     -0.4587    
   1025      1     70     40      -9.213    
   1026      1     71     40      -4.607    
   1027      1     72     40      -4.607    
   1028      1     75     40      -4.607    
   1029      1     76     40      -4.607    
   1030      1     81     40      -447.5    
   1031      1     82     40      -3.762    
   1032      1     83     40      -3.762    
   1033      1     23     41      -7.143    
   1034      1     24     41      -7.143    
   1035      1     33     41     -0.9421    
   1036      1     36     41      -7.145    
   1037      1     37     41      -7.145    
   1038      1     38     41      -7.146    
   1039      1     39     41      -7.146    
   1040      1     40     41      -2.874    
   1041      1     41     41      -2.874    
   1042      1     42     41      -2.874    
   1043      1     43     41      -2.874    
   1044      1     44     41      -2.874    
   1045      1     45     41      -2.874    
   1046      1     46     41      -5.748    
   1047      1     49     41     -0.2596    
   1048      1     50     41     -0.2596    
   1049      1     51     41      -2.875    
   1050      1     52     41      -2.875    
   1051      1     55     41      -2.875    
   1052      1     56     41      -2.875    
   1053      1     57     41      -5.750    
   1054      1     58     41      -4.605    
   1055      1     59     41      -4.605    
   1056      1     60     41      -4.605    
   1057      1     61     41      -4.605    
   1058      1     62     41      -4.606    
   1059      1     63     41      -4.606    
   1060      1     70     41      -9.213    
   1061      1     71     41      -4.607    
   1062      1     72     41      -4.607    
   1063      1     75     41     -0.4589    
   1064      1     76     41     -0.4589    
   1065      1     77     41      -3.761    
   1066      1     78     41      -3.761    
   1067      1     79     41      -3.761    
   1068      1     80     41      -3.761    
   1069      1     81     41      -7.523    
   1070      1     82     41      -3.762    
   1071      1     83     41      -3.762    
   1072      1     23     42      -7.143    
   1073      1     24     42      -7.143    
   1074      1     33     42     -0.9421    
   1075      1     34     42     -0.9421    
   1076      1     36     42      -7.145    
   1077      1     37     42      -7.145    
   1078      1     38     42      -7.146    
   1079      1     39     42      -7.146    
   1080      1     40     42      -2.874    
   1081      1     41     42      -2.874    
   1082      1     42     42      -2.874    
   1083      1     43     42      -2.874    
   1084      1     44     42      -2.874    
   1085      1     45     42      -2.874    
   1086      1     46     42      -5.748    
   1087      1     49     42     -0.2596    
   1088      1     50     42     -0.2596    
   1089      1     51     42      -2.875    
   1090      1     52     42      -2.875    
   1091      1     55     42      -2.875    
   1092      1     56     42      -2.875    
   1093      1     57     42      -5.750    
   1094      1     58     42      -4.605    
   1095      1     59     42      -4.605    
   1096      1     60     42      -4.605    
   1097      1     61     42      -4.605    
   1098      1     62     42      -4.606    
   1099      1     63     42      -4.606    
   1100      1     70     42      -9.213    
   1101      1     71     42      -4.607    
   1102      1     72     42      -4.607    
   1103      1     75     42     -0.4589    
   1104      1     76     42     -0.4589    
   1105      1     77     42      -3.761    
   1106      1     78     42      -3.761    
   1107      1     79     42      -3.761    
   1108      1     80     42      -3.761    
   1109      1     81     42      -7.523    
   1110      1     82     42      -3.762    
   1111      1     83     42      -3.762    
   1112      1     22     43      -14.29    
   1113      1     23     43      -7.143    
   1114      1     24     43      -7.143    
   1115      1     25     43      -7.143    
   1116      1     26     43      -7.143    
   1117      1     27     43      -7.144    
   1118      1     28     43      -7.144    
   1119      1     29     43      -7.144    
   1120      1     30     43      -7.144    
   1121      1     36     43      -7.145    
   1122      1     37     43      -7.145    
   1123      1     38     43      -7.146    
   1124      1     39     43      -7.146    
   1125      1     40     43      -2.874    
   1126      1     41     43      -2.874    
   1127      1     42     43      -2.874    
   1128      1     43     43      -2.874    
   1129      1     44     43      -2.874    
   1130      1     45     43      -2.874    
   1131      1     46     43     -0.5191    
   1132      1     49     43      -2.874    
   1133      1     50     43      -2.874    
   1134      1     55     43      -2.875    
   1135      1     56     43      -2.875    
   1136      1     57     43      -5.750    
   1137      1     58     43      -4.605    
   1138      1     59     43      -4.605    
   1139      1     60     43      -4.605    
   1140      1     61     43      -4.605    
   1141      1     62     43      -4.606    
   1142      1     63     43      -4.606    
   1143      1     64     43      -4.606    
   1144      1     65     43      -4.606    
   1145      1     66     43      -9.212    
   1146      1     67     43      -9.212    
   1147      1     68     43      -9.212    
   1148      1     69     43      -9.212    
   1149      1     71     43     -0.9177    
   1150      1     72     43     -0.9177    
   1151      1     77     43     -0.7372    
   1152      1     78     43     -0.7372    
   1153      1     79     43     -0.7372    
   1154      1     80     43     -0.7372    
   1155      1     82     43      -7.523    
   1156      1     83     43      -7.523    
   1157      1     84     43      -7.524    
   1158      1     85     43      -7.524    
   1159      1     22     44      -14.29    
   1160      1     23     44      -7.143    
   1161      1     24     44      -7.143    
   1162      1     25     44      -7.143    
   1163      1     26     44      -7.143    
   1164      1     27     44      -7.144    
   1165      1     28     44      -7.144    
   1166      1     29     44      -7.144    
   1167      1     30     44      -7.144    
   1168      1     36     44      -7.145    
   1169      1     37     44      -7.145    
   1170      1     38     44      -7.146    
   1171      1     39     44      -7.146    
   1172      1     40     44      -2.874    
   1173      1     41     44      -2.874    
   1174      1     42     44      -2.874    
   1175      1     43     44      -2.874    
   1176      1     44     44      -2.874    
   1177      1     45     44      -2.874    
   1178      1     46     44     -0.5191    
   1179      1     49     44      -2.874    
   1180      1     50     44      -2.874    
   1181      1     55     44      -2.875    
   1182      1     56     44      -2.875    
   1183      1     57     44      -5.750    
   1184      1     58     44      -4.605    
   1185      1     59     44      -4.605    
   1186      1     60     44      -4.605    
   1187      1     61     44      -4.605    
   1188      1     62     44      -4.606    
   1189      1     63     44      -4.606    
   1190      1     64     44      -4.606    
   1191      1     65     44      -4.606    
   1192      1     73     44      -4.607    
   1193      1     74     44      -4.607    
   1194      1     75     44      -4.607    
   1195      1     76     44      -4.607    
   1196      1     79     44      -213.3    
   1197      1     80     44      -213.3    
   1198      1     81     44      -7.523    
   1199      1     82     44      -3.762    
   1200      1     83     44      -3.762    
   1201      1     84     44      -3.762    
   1202      1     85     44      -3.762    
   1203      1     86     44      -3.762    
   1204      1     87     44      -3.762    
   1205      1     22     45      -14.29    
   1206      1     23     45      -7.143    
   1207      1     24     45      -7.143    
   1208      1     25     45      -7.143    
   1209      1     26     45      -7.143    
   1210      1     27     45      -7.144    
   1211      1     28     45      -7.144    
   1212      1     29     45      -7.144    
   1213      1     30     45      -7.144    
   1214      1     31     45      -14.29    
   1215      1     32     45      -14.29    
   1216      1     36     45      -14.29    
   1217      1     37     45      -14.29    
   1218      1     38     45      -14.29    
   1219      1     39     45      -14.29    
   1220      1     40     45      -5.747    
   1221      1     41     45      -5.747    
   1222      1     42     45      -5.748    
   1223      1     43     45      -5.748    
   1224      1     44     45      -5.748    
   1225      1     45     45      -5.748    
   1226      1     53     45      -5.749    
   1227      1     54     45      -5.749    
   1228      1     57     45      -5.750    
   1229      1     58     45      -5.750    
   1230      1     59     45      -18.42    
   1231      1     60     45      -9.211    
   1232      1     61     45      -9.211    
   1233      1     62     45      -9.211    
   1234      1     63     45      -9.211    
   1235      1     64     45      -9.212    
   1236      1     65     45      -9.212    
   1237      1     73     45      -4.607    
   1238      1     74     45      -4.607    
   1239      1     75     45      -4.607    
   1240      1     76     45      -4.607    
   1241      1     79     45      -213.3    
   1242      1     80     45      -213.3    
   1243      1     81     45      -7.523    
   1244      1     82     45      -3.762    
   1245      1     83     45      -3.762    
   1246      1     84     45      -3.762    
   1247      1     85     45      -3.762    
   1248      1     86     45      -3.762    
   1249      1     87     45      -3.762    
   1250      1     22     46      -14.29    
   1251      1     23     46      -7.143    
   1252      1     24     46      -7.143    
   1253      1     25     46      -7.143    
   1254      1     26     46      -7.143    
   1255      1     27     46      -7.144    
   1256      1     28     46      -7.144    
   1257      1     29     46      -7.144    
   1258      1     30     46      -7.144    
   1259      1     31     46      -7.144    
   1260      1     32     46      -7.144    
   1261      1     36     46      -7.145    
   1262      1     37     46      -7.145    
   1263      1     40     46      -2.874    
   1264      1     41     46      -2.874    
   1265      1     42     46      -2.874    
   1266      1     43     46      -2.874    
   1267      1     47     46     -0.2595    
   1268      1     48     46     -0.2595    
   1269      1     49     46     -0.2596    
   1270      1     50     46     -0.2596    
   1271      1     51     46      -2.875    
   1272      1     52     46      -2.875    
   1273      1     53     46      -2.875    
   1274      1     54     46      -2.875    
   1275      1     55     46      -2.875    
   1276      1     56     46      -2.875    
   1277      1     57     46      -2.875    
   1278      1     58     46      -2.875    
   1279      1     59     46      -9.210    
   1280      1     60     46      -4.605    
   1281      1     61     46      -4.605    
   1282      1     62     46      -4.606    
   1283      1     63     46      -4.606    
   1284      1     64     46      -4.606    
   1285      1     65     46      -4.606    
   1286      1     66     46      -4.606    
   1287      1     67     46      -4.606    
   1288      1     73     46      -4.607    
   1289      1     74     46      -4.607    
   1290      1     75     46      -4.607    
   1291      1     76     46      -4.607    
   1292      1     77     46      -3.761    
   1293      1     78     46      -3.761    
   1294      1     79     46      -3.761    
   1295      1     80     46      -3.761    
   1296      1     81     46      -7.523    
   1297      1     82     46      -3.762    
   1298      1     83     46      -3.762    
   1299      1     84     46      -3.762    
   1300      1     85     46      -3.762    
   1301      1     88     46      -3.762    
   1302      1     89     46      -3.762    
   1303      1     20     47      -18.44    
   1304      1     21     47      -18.44    
   1305      1     22     47      -28.57    
   1306      1     23     47      -14.29    
   1307      1     24     47      -14.29    
   1308      1     25     47      -14.29    
   1309      1     26     47      -14.29    
   1310      1     27     47      -14.29    
   1311      1     28     47      -14.29    
   1312      1     29     47      -14.29    
   1313      1     30     47      -14.29    
   1314      1     31     47      -7.144    
   1315      1     32     47      -7.144    
   1316      1     36     47      -7.145    
   1317      1     37     47      -7.145    
   1318      1     40     47      -2.874    
   1319      1     41     47      -2.874    
   1320      1     42     47      -2.874    
   1321      1     43     47      -2.874    
   1322      1     47     47     -0.2595    
   1323      1     48     47     -0.2595    
   1324      1     49     47     -0.2596    
   1325      1     50     47     -0.2596    
   1326      1     51     47      -2.875    
   1327      1     52     47      -2.875    
   1328      1     53     47      -2.875    
   1329      1     54     47      -2.875    
   1330      1     55     47      -2.875    
   1331      1     56     47      -2.875    
   1332      1     57     47      -2.875    
   1333      1     58     47      -2.875    
   1334      1     59     47      -9.210    
   1335      1     60     47      -4.605    
   1336      1     61     47      -4.605    
   1337      1     62     47      -4.606    
   1338      1     63     47      -4.606    
   1339      1     64     47      -4.606    
   1340      1     65     47      -4.606    
   1341      1     66     47      -4.606    
   1342      1     67     47      -4.606    
   1343      1     73     47      -4.607    
   1344      1     74     47      -4.607    
   1345      1     75     47      -4.607    
   1346      1     76     47      -4.607    
   1347      1     77     47      -3.761    
   1348      1     78     47      -3.761    
   1349      1     79     47      -3.761    
   1350      1     80     47      -3.761    
   1351      1     81     47      -7.523    
   1352      1     82     47      -3.762    
   1353      1     83     47      -3.762    
   1354      1     84     47      -3.762    
   1355      1     85     47      -3.762    
   1356      1     88     47      -3.762    
   1357      1     89     47      -3.762    
   1358      1     16     48      -11.67    
   1359      1     17     48      -11.67    
   1360      1     20     48      -11.68    
   1361      1     21     48      -11.68    
   1362      1     22     48      -17.46    
   1363      1     23     48      -8.733    
   1364      1     24     48      -8.733    
   1365      1     25     48      -8.733    
   1366      1     26     48      -8.733    
   1367      1     29     48      -8.734    
   1368      1     30     48      -8.734    
   1369      1     31     48      -8.734    
   1370      1     32     48      -8.734    
   1371      1     33     48      -8.735    
   1372      1     34     48      -8.735    
   1373      1     38     48     -0.8623    
   1374      1     39     48     -0.8623    
   1375      1     40     48      -6.394    
   1376      1     41     48      -6.394    
   1377      1     46     48      -1.124    
   1378      1     47     48      -6.395    
   1379      1     48     48      -6.395    
   1380      1     49     48      -6.396    
   1381      1     50     48      -6.396    
   1382      1     51     48      -6.396    
   1383      1     52     48      -6.396    
   1384      1     53     48      -6.396    
   1385      1     54     48      -6.396    
   1386      1     55     48      -6.396    
   1387      1     56     48      -6.396    
   1388      1     57     48      -6.397    
   1389      1     58     48      -6.397    
   1390      1     59     48      -20.86    
   1391      1     60     48      -10.43    
   1392      1     61     48      -10.43    
   1393      1     64     48      -10.43    
   1394      1     65     48      -10.43    
   1395      1     66     48      -10.43    
   1396      1     67     48      -10.43    
   1397      1     68     48      -10.43    
   1398      1     69     48      -10.43    
   1399      1     73     48      -10.43    
   1400      1     74     48      -10.43    
   1401      1     79     48      -7.747    
   1402      1     80     48      -7.747    
   1403      1     81     48      -10.33    
   1404      1     82     48      -10.33    
   1405      1     83     48      -10.33    
   1406      1     84     48      -294.4    
   1407      1     85     48      -294.4    
   1408      1     88     48      -7.749    
   1409      1     89     48      -7.749    
   1410      1     16     49      -11.67    
   1411      1     17     49      -11.67    
   1412      1     20     49      -11.68    
   1413      1     21     49      -11.68    
   1414      1     22     49      -17.46    
   1415      1     23     49      -8.733    
   1416      1     24     49      -8.733    
   1417      1     25     49      -8.733    
   1418      1     26     49      -8.733    
   1419      1     29     49      -8.734    
   1420      1     30     49      -8.734    
   1421      1     31     49      -8.734    
   1422      1     32     49      -8.734    
   1423      1     33     49      -8.735    
   1424      1     34     49      -8.735    
   1425      1     38     49     -0.8623    
   1426      1     39     49     -0.8623    
   1427      1     40     49      -6.394    
   1428      1     41     49      -6.394    
   1429      1     46     49      -1.124    
   1430      1     47     49      -6.395    
   1431      1     48     49      -6.395    
   1432      1     49     49      -6.396    
   1433      1     50     49      -6.396    
   1434      1     51     49      -6.396    
   1435      1     52     49      -6.396    
   1436      1     53     49      -6.396    
   1437      1     54     49      -6.396    
   1438      1     55     49      -6.396    
   1439      1     56     49      -6.396    
   1440      1     57     49      -6.397    
   1441      1     58     49      -6.397    
   1442      1     59     49      -20.86    
   1443      1     60     49      -10.43    
   1444      1     61     49      -10.43    
   1445      1     64     49      -10.43    
   1446      1     65     49      -10.43    
   1447      1     66     49      -10.43    
   1448      1     67     49      -10.43    
   1449      1     68     49      -10.43    
   1450      1     69     49      -10.43    
   1451      1     73     49      -10.43    
   1452      1     74     49      -10.43    
   1453      1     79     49      -7.747    
   1454      1     80     49      -7.747    
   1455      1     81     49      -10.33    
   1456      1     82     49      -10.33    
   1457      1     83     49      -10.33    
   1458      1     84     49      -294.4    
   1459      1     85     49      -294.4    
   1460      1     88     49      -7.749    
   1461      1     89     49      -7.749    
   1462      1     16     50      -11.67    
   1463      1     17     50      -11.67    
   1464      1     20     50      -11.68    
   1465      1     21     50      -11.68    
   1466      1     22     50      -17.46    
   1467      1     23     50      -8.733    
   1468      1     24     50      -8.733    
   1469      1     25     50      -8.733    
   1470      1     26     50      -8.733    
   1471      1     29     50      -8.734    
   1472      1     30     50      -8.734    
   1473      1     31     50      -8.734    
   1474      1     32     50      -8.734    
   1475      1     33     50      -8.735    
   1476      1     34     50      -8.735    
   1477      1     35     50      -17.47    
   1478      1     38     50      -8.736    
   1479      1     39     50      -8.736    
   1480      1     40     50      -6.394    
   1481      1     41     50      -6.394    
   1482      1     42     50     -0.5621    
   1483      1     43     50     -0.5621    
   1484      1     46     50      -1.124    
   1485      1     47     50      -6.395    
   1486      1     48     50      -6.395    
   1487      1     49     50      -6.396    
   1488      1     50     50      -6.396    
   1489      1     51     50      -6.396    
   1490      1     52     50      -6.396    
   1491      1     53     50      -6.396    
   1492      1     54     50      -6.396    
   1493      1     55     50      -6.396    
   1494      1     56     50      -6.396    
   1495      1     57     50      -6.397    
   1496      1     58     50      -6.397    
   1497      1     59     50      -20.86    
   1498      1     64     50      -10.43    
   1499      1     65     50      -10.43    
   1500      1     66     50      -10.43    
   1501      1     67     50      -10.43    
   1502      1     68     50      -10.43    
   1503      1     69     50      -10.43    
   1504      1     70     50      -20.87    
   1505      1     79     50      -589.9    
   1506      1     80     50      -589.9    
   1507      1     81     50      -15.49    
   1508      1     82     50      -15.49    
   1509      1     83     50      -30.99    
   1510      1     84     50      -591.6    
   1511      1     85     50      -591.6    
   1512      1     86     50      -1.505    
   1513      1     87     50      -1.505    
   1514      1     88     50      -15.50    
   1515      1     89     50      -15.50    
   1516      1     16     51      -11.67    
   1517      1     17     51      -11.67    
   1518      1     20     51      -11.68    
   1519      1     21     51      -11.68    
   1520      1     22     51      -17.46    
   1521      1     23     51      -8.733    
   1522      1     24     51      -8.733    
   1523      1     25     51      -8.733    
   1524      1     26     51      -8.733    
   1525      1     29     51      -8.734    
   1526      1     30     51      -8.734    
   1527      1     31     51      -8.734    
   1528      1     32     51      -8.734    
   1529      1     33     51      -8.735    
   1530      1     34     51      -8.735    
   1531      1     35     51      -17.47    
   1532      1     38     51      -8.736    
   1533      1     39     51      -8.736    
   1534      1     40     51      -6.394    
   1535      1     41     51      -6.394    
   1536      1     42     51     -0.5621    
   1537      1     43     51     -0.5621    
   1538      1     46     51      -1.124    
   1539      1     47     51      -6.395    
   1540      1     48     51      -6.395    
   1541      1     49     51      -6.396    
   1542      1     50     51      -6.396    
   1543      1     51     51      -6.396    
   1544      1     52     51      -6.396    
   1545      1     53     51      -6.396    
   1546      1     54     51      -6.396    
   1547      1     55     51      -6.396    
   1548      1     56     51      -6.396    
   1549      1     57     51      -6.397    
   1550      1     58     51      -6.397    
   1551      1     59     51      -20.86    
   1552      1     64     51      -10.43    
   1553      1     65     51      -10.43    
   1554      1     66     51      -10.43    
   1555      1     67     51      -10.43    
   1556      1     68     51      -10.43    
   1557      1     69     51      -10.43    
   1558      1     70     51      -20.87    
   1559      1     74     51      -13.91    
   1560      1     75     51      -10.43    
   1561      1     76     51      -10.43    
   1562      1     77     51      -294.7    
   1563      1     78     51      -294.7    
   1564      1     79     51      -7.747    
   1565      1     80     51      -7.747    
   1566      1     81     51      -7.747    
   1567      1     82     51      -7.747    
   1568      1     83     51      -591.1    
   1569      1     86     51     -0.7524    
   1570      1     87     51     -0.7524    
   1571      1     88     51      -295.1    
   1572      1     89     51      -295.1    
   1573      1     16     52      -11.67    
   1574      1     17     52      -11.67    
   1575      1     20     52      -11.68    
   1576      1     21     52      -11.68    
   1577      1     22     52      -8.732    
   1578      1     23     52      -8.732    
   1579      1     24     52      -17.47    
   1580      1     31     52      -8.734    
   1581      1     32     52      -8.734    
   1582      1     33     52      -8.735    
   1583      1     34     52      -8.735    
   1584      1     35     52      -17.47    
   1585      1     38     52      -11.65    
   1586      1     39     52      -11.65    
   1587      1     40     52      -12.79    
   1588      1     41     52      -12.79    
   1589      1     42     52      -12.79    
   1590      1     43     52      -12.79    
   1591      1     49     52      -1.124    
   1592      1     50     52      -1.124    
   1593      1     51     52      -12.79    
   1594      1     52     52      -12.79    
   1595      1     55     52      -12.79    
   1596      1     56     52      -12.79    
   1597      1     57     52      -12.79    
   1598      1     58     52      -12.79    
   1599      1     59     52      -41.72    
   1600      1     64     52      -20.86    
   1601      1     65     52      -20.86    
   1602      1     66     52      -20.86    
   1603      1     67     52      -20.86    
   1604      1     68     52      -20.86    
   1605      1     69     52      -20.86    
   1606      1     73     52      -13.91    
   1607      1     74     52      -13.91    
   1608      1     75     52      -10.43    
   1609      1     76     52      -10.43    
   1610      1     77     52      -294.7    
   1611      1     78     52      -294.7    
[...]
  10271      1    108    258       206.4    
  10272      1    108    259       206.4    
  10273      1    108    260       206.4    
  10274      1    108    261       206.4    
  10275      1    109    241       206.4    
  10276      1    109    242       206.4    
  10277      1    109    243       206.4    
  10278      1    109    245       206.4    
  10279      1    109    247       206.4    
  10280      1    109    250       206.4    
  10281      1    109    252       206.4    
  10282      1    109    255       206.4    
  10283      1    109    258       206.4    
  10284      1    109    259       206.4    
  10285      1    109    260       206.4    
  10286      1    109    294       206.4    
  10287      1    109    339       206.4    
  10288      1    110    244       206.4    
  10289      1    110    245       206.4    
  10290      1    110    246       206.4    
  10291      1    110    249       206.4    
  10292      1    110    252       206.4    
  10293      1    110    255       206.4    
  10294      1    110    257       206.4    
  10295      1    110    295       206.4    
  10296      1    110    332       206.4    
  10297      1    110    333       206.4    
  10298      1    110    338       206.4    
  10299      1    111    246       206.4    
  10300      1    111    249       206.4    
  10301      1    111    252       206.4    
  10302      1    111    254       206.4    
  10303      1    111    256       206.4    
  10304      1    111    271       206.4    
  10305      1    111    285       206.4    
  10306      1    111    286       206.4    
  10307      1    111    295       206.4    
  10308      1    111    332       206.4    
  10309      1    111    338       206.4    
  10310      1    112    247       206.4    
  10311      1    112    249       206.4    
  10312      1    112    251       206.4    
  10313      1    112    252       206.4    
  10314      1    112    253       206.4    
  10315      1    112    254       206.4    
  10316      1    112    255       206.4    
  10317      1    112    271       206.4    
  10318      1    112    284       206.4    
  10319      1    112    285       206.4    
  10320      1    112    295       206.4    
  10321      1    112    333       206.4    
  10322      1    113    248       206.4    
  10323      1    113    249       206.4    
  10324      1    113    250       206.4    
  10325      1    113    255       206.4    
  10326      1    113    270       206.4    
  10327      1    113    277       206.4    
  10328      1    113    278       206.4    
  10329      1    113    283       206.4    
  10330      1    113    295       206.4    
  10331      1    113    298       206.4    
  10332      1    113    299       206.4    
  10333      1    113    322       206.4    
  10334      1    113    332       206.4    
  10335      1    114    254       206.4    
  10336      1    114    262       206.4    
  10337      1    114    263       206.4    
  10338      1    114    269       206.4    
  10339      1    114    270       206.4    
  10340      1    114    276       206.4    
  10341      1    114    283       206.4    
  10342      1    114    291       206.4    
  10343      1    114    296       206.4    
  10344      1    114    297       206.4    
  10345      1    114    298       206.4    
  10346      1    114    323       206.4    
  10347      1    114    333       206.4    
  10348      1    115    254       206.4    
  10349      1    115    261       206.4    
  10350      1    115    270       206.4    
  10351      1    115    275       206.4    
  10352      1    115    276       206.4    
  10353      1    115    283       206.4    
  10354      1    115    291       206.4    
  10355      1    115    297       206.4    
  10356      1    115    298       206.4    
  10357      1    115    304       206.4    
  10358      1    115    306       206.4    
  10359      1    115    323       206.4    
  10360      1    115    324       206.4    
  10361      1    115    333       206.4    
  10362      1    116    254       206.4    
  10363      1    116    255       206.4    
  10364      1    116    260       206.4    
  10365      1    116    261       206.4    
  10366      1    116    270       206.4    
  10367      1    116    271       206.4    
  10368      1    116    272       206.4    
  10369      1    116    273       206.4    
  10370      1    116    274       206.4    
  10371      1    116    283       206.4    
  10372      1    116    291       206.4    
  10373      1    116    298       206.4    
  10374      1    116    299       206.4    
  10375      1    116    304       206.4    
  10376      1    116    306       206.4    
  10377      1    116    325       206.4    
  10378      1    116    326       206.4    
  10379      1    117    255       206.4    
  10380      1    117    256       206.4    
  10381      1    117    257       206.4    
  10382      1    117    258       206.4    
  10383      1    117    259       206.4    
  10384      1    117    267       206.4    
  10385      1    117    268       206.4    
  10386      1    117    269       206.4    
  10387      1    117    282       206.4    
  10388      1    117    291       206.4    
  10389      1    117    299       206.4    
  10390      1    117    305       206.4    
  10391      1    117    306       206.4    
  10392      1    117    312       206.4    
  10393      1    117    313       206.4    
  10394      1    117    327       206.4    
  10395      1    118    256       206.4    
  10396      1    118    258       206.4    
  10397      1    118    267       206.4    
  10398      1    118    281       206.4    
  10399      1    118    282       206.4    
  10400      1    118    291       206.4    
  10401      1    118    298       206.4    
  10402      1    118    305       206.4    
  10403      1    118    312       206.4    
  10404      1    118    323       206.4    
  10405      1    118    327       206.4    
  10406      1    119    256       206.4    
  10407      1    119    257       206.4    
  10408      1    119    267       206.4    
  10409      1    119    281       206.4    
  10410      1    119    291       206.4    
  10411      1    119    298       206.4    
  10412      1    119    305       206.4    
  10413      1    119    312       206.4    
  10414      1    119    324       206.4    
  10415      1    119    327       206.4    
  10416      1    120    257       206.4    
  10417      1    120    260       206.4    
  10418      1    120    261       206.4    
  10419      1    120    262       206.4    
  10420      1    120    266       206.4    
  10421      1    120    267       206.4    
  10422      1    120    280       206.4    
  10423      1    120    291       206.4    
  10424      1    120    298       206.4    
  10425      1    120    300       206.4    
  10426      1    120    306       206.4    
  10427      1    120    312       206.4    
  10428      1    120    325       206.4    
  10429      1    120    326       206.4    
  10430      1    120    327       206.4    
  10431      1    121    257       206.4    
  10432      1    121    258       206.4    
  10433      1    121    259       206.4    
  10434      1    121    263       206.4    
  10435      1    121    264       206.4    
  10436      1    121    266       206.4    
  10437      1    121    270       206.4    
  10438      1    121    280       206.4    
  10439      1    121    291       206.4    
  10440      1    121    298       206.4    
  10441      1    121    299       206.4    
  10442      1    121    300       206.4    
  10443      1    121    305       206.4    
  10444      1    121    311       206.4    
  10445      1    121    312       206.4    
  10446      1    121    326       206.4    
  10447      1    121    327       206.4    
  10448      1    122    263       206.4    
  10449      1    122    265       206.4    
  10450      1    122    271       206.4    
  10451      1    122    272       206.4    
  10452      1    122    278       206.4    
  10453      1    122    279       206.4    
  10454      1    122    291       206.4    
  10455      1    122    298       206.4    
  10456      1    122    305       206.4    
  10457      1    122    311       206.4    
  10458      1    123    263       206.4    
  10459      1    123    273       206.4    
  10460      1    123    278       206.4    
  10461      1    123    291       206.4    
  10462      1    123    295       206.4    
  10463      1    123    299       206.4    
  10464      1    123    305       206.4    
  10465      1    123    310       206.4    
  10466      1    123    326       206.4    
  10467      1    124    264       206.4    
  10468      1    124    272       206.4    
  10469      1    124    274       206.4    
  10470      1    124    278       206.4    
  10471      1    124    291       206.4    
  10472      1    124    295       206.4    
  10473      1    124    300       206.4    
  10474      1    124    304       206.4    
  10475      1    124    310       206.4    
  10476      1    124    326       206.4    
  10477      1    125    265       206.4    
  10478      1    125    267       206.4    
  10479      1    125    268       206.4    
  10480      1    125    271       206.4    
  10481      1    125    274       206.4    
  10482      1    125    277       206.4    
  10483      1    125    291       206.4    
  10484      1    125    295       206.4    
  10485      1    125    300       206.4    
  10486      1    125    301       206.4    
  10487      1    125    302       206.4    
  10488      1    125    303       206.4    
  10489      1    125    304       206.4    
  10490      1    125    310       206.4    
  10491      1    125    325       206.4    
  10492      1    126    266       206.4    
  10493      1    126    267       206.4    
  10494      1    126    271       206.4    
  10495      1    126    274       206.4    
  10496      1    126    277       206.4    
  10497      1    126    291       206.4    
  10498      1    126    295       206.4    
  10499      1    126    300       206.4    
  10500      1    126    310       206.4    
  10501      1    126    312       206.4    
  10502      1    127    267       206.4    
  10503      1    127    271       206.4    
  10504      1    127    273       206.4    
  10505      1    127    277       206.4    
  10506      1    127    286       206.4    
  10507      1    127    290       206.4    
  10508      1    127    294       206.4    
  10509      1    127    299       206.4    
  10510      1    127    310       206.4    
  10511      1    127    311       206.4    
  10512      1    127    324       206.4    
  10513      1    128    267       206.4    
  10514      1    128    270       206.4    
  10515      1    128    271       206.4    
  10516      1    128    273       206.4    
  10517      1    128    276       206.4    
  10518      1    128    286       206.4    
  10519      1    128    287       206.4    
  10520      1    128    288       206.4    
  10521      1    128    290       206.4    
  10522      1    128    294       206.4    
  10523      1    128    299       206.4    
  10524      1    128    303       206.4    
  10525      1    128    309       206.4    
  10526      1    128    310       206.4    
  10527      1    128    311       206.4    
  10528      1    128    323       206.4    
  10529      1    129    268       206.4    
  10530      1    129    269       206.4    
  10531      1    129    271       206.4    
  10532      1    129    272       206.4    
  10533      1    129    273       206.4    
  10534      1    129    276       206.4    
  10535      1    129    277       206.4    
  10536      1    129    289       206.4    
  10537      1    129    290       206.4    
  10538      1    129    293       206.4    
  10539      1    129    299       206.4    
  10540      1    129    300       206.4    
  10541      1    129    301       206.4    
  10542      1    129    302       206.4    
  10543      1    129    305       206.4    
  10544      1    129    307       206.4    
  10545      1    129    308       206.4    
  10546      1    129    311       206.4    
  10547      1    130    273       206.4    
  10548      1    130    274       206.4    
  10549      1    130    276       206.4    
  10550      1    130    277       206.4    
  10551      1    130    288       206.4    
  10552      1    130    289       206.4    
  10553      1    130    290       206.4    
  10554      1    130    291       206.4    
  10555      1    130    292       206.4    
  10556      1    130    299       206.4    
  10557      1    130    303       206.4    
  10558      1    130    304       206.4    
  10559      1    130    305       206.4    
  10560      1    130    306       206.4    
  10561      1    130    310       206.4    
  10562      1    131    274       206.4    
  10563      1    131    277       206.4    
  10564      1    131    287       206.4    
  10565      1    131    289       206.4    
  10566      1    131    292       206.4    
  10567      1    131    293       206.4    
  10568      1    131    294       206.4    
  10569      1    131    299       206.4    
  10570      1    131    303       206.4    
  10571      1    131    310       206.4    
  10572      1    132    274       206.4    
  10573      1    132    276       206.4    
  10574      1    132    283       206.4    
  10575      1    132    288       206.4    
  10576      1    132    295       206.4    
  10577      1    132    296       206.4    
  10578      1    132    297       206.4    
  10579      1    132    299       206.4    
  10580      1    132    301       206.4    
  10581      1    132    302       206.4    
  10582      1    132    310       206.4    
  10583      1    133    275       206.4    
  10584      1    133    276       206.4    
  10585      1    133    283       206.4    
  10586      1    133    288       206.4    
  10587      1    133    297       206.4    
  10588      1    133    298       206.4    
  10589      1    133    300       206.4    
  10590      1    133    301       206.4    
  10591      1    133    304       206.4    
  10592      1    133    310       206.4    
  10593      1    133    317       206.4    
  10594      1    134    275       206.4    
  10595      1    134    276       206.4    
  10596      1    134    284       206.4    
  10597      1    134    289       206.4    
  10598      1    134    299       206.4    
  10599      1    134    300       206.4    
  10600      1    134    304       206.4    
  10601      1    134    310       206.4    
  10602      1    134    315       206.4    
  10603      1    134    316       206.4    
  10604      1    135    277       206.4    
  10605      1    135    278       206.4    
  10606      1    135    284       206.4    
  10607      1    135    288       206.4    
  10608      1    135    301       206.4    
  10609      1    135    302       206.4    
  10610      1    135    303       206.4    
  10611      1    135    305       206.4    
  10612      1    135    310       206.4    
  10613      1    135    313       206.4    
  10614      1    135    314       206.4    
  10615      1    136    279       206.4    
  10616      1    136    282       206.4    
  10617      1    136    285       206.4    
  10618      1    136    286       206.4    
  10619      1    136    287       206.4    
  10620      1    136    301       206.4    
  10621      1    136    304       206.4    
  10622      1    136    308       206.4    
  10623      1    136    309       206.4    
  10624      1    136    310       206.4    
  10625      1    136    312       206.4    
  10626      1    137    280       206.4    
  10627      1    137    282       206.4    
  10628      1    137    285       206.4    
  10629      1    137    302       206.4    
  10630      1    137    303       206.4    
  10631      1    137    306       206.4    
  10632      1    137    307       206.4    
  10633      1    137    309       206.4    
  10634      1    137    311       206.4    
  10635      1    138    281       206.4    
  10636      1    138    282       206.4    
  10637      1    138    284       206.4    
  10638      1    138    302       206.4    
  10639      1    138    307       206.4    
  10640      1    139    282       206.4    
  10641      1    139    283       206.4    
  10642      1    139    284       206.4    
  10643      1    139    302       206.4    
  10644      1    139    303       206.4    
  10645      1    139    305       206.4    
  10646      1    139    306       206.4    
  10647      1    140    302       206.4    
  10648      1    140    303       206.4    
  10649      1    140    304       206.4    
  10650      1    140    305       206.4    
  10651      1    140    306       206.4    
  10652      1    140    307       206.4    
  10653      1    141    302       206.4    

  10653 WELLS

  54036 DRAINS



                           RECHARGE
 READING ON UNIT   19 WITH FORMAT: (342E15.6)          
 
 SOLVING FOR HEAD 

    ------------------------------------------------
       NWT REQUIRED            4 OUTER ITERATIONS 
       AND A TOTAL OF          5 INNER ITERATIONS.
    ------------------------------------------------

 OUTPUT CONTROL FOR STRESS PERIOD    1   TIME STEP    1
    SAVE HEAD FOR ALL LAYERS

 HEAD WILL BE SAVED ON UNIT   51 AT END OF TIME STEP    1, STRESS PERIOD    1
1
  VOLUMETRIC BUDGET FOR ENTIRE MODEL AT END OF TIME STEP    1, STRESS PERIOD   1
  ------------------------------------------------------------------------------

     CUMULATIVE VOLUMES      L**3       RATES FOR THIS TIME STEP      L**3/T
     ------------------                 ------------------------

           IN:                                      IN:
           ---                                      ---
             STORAGE =     2489180.7500               STORAGE =     2489180.7500
       CONSTANT HEAD =           0.0000         CONSTANT HEAD =           0.0000
               WELLS =      327998.2500                 WELLS =      327998.2500
              DRAINS =           0.0000                DRAINS =           0.0000
            RECHARGE =      536120.5625              RECHARGE =      536120.5625

            TOTAL IN =     3353299.5000              TOTAL IN =     3353299.5000

          OUT:                                     OUT:
          ----                                     ----
             STORAGE =       96908.8828               STORAGE =       96908.8828
       CONSTANT HEAD =           0.0000         CONSTANT HEAD =           0.0000
               WELLS =      575807.3750                 WELLS =      575807.3750
              DRAINS =     2680856.5000                DRAINS =     2680856.5000
            RECHARGE =           0.0000              RECHARGE =           0.0000

           TOTAL OUT =     3353572.7500             TOTAL OUT =     3353572.7500

            IN - OUT =        -273.2500              IN - OUT =        -273.2500

 PERCENT DISCREPANCY =          -0.01     PERCENT DISCREPANCY =          -0.01






         TIME SUMMARY AT END OF TIME STEP    1 IN STRESS PERIOD    1
                    SECONDS     MINUTES      HOURS       DAYS        YEARS
                    -----------------------------------------------------------
   TIME STEP LENGTH  86400.      1440.0      24.000      1.0000     2.73785E-03
 STRESS PERIOD TIME  86400.      1440.0      24.000      1.0000     2.73785E-03
         TOTAL TIME  86400.      1440.0      24.000      1.0000     2.73785E-03
1

 Run end date and time (yyyy/mm/dd hh:mm:ss): 2020/05/04 16:34:02
 Elapsed run time:  0.394 Seconds

