                                  MODFLOW-NWT-SWR1 
      U.S. GEOLOGICAL SURVEY MODULAR FINITE-DIFFERENCE GROUNDWATER-FLOW MODEL
                             VERSION 1.1.4 4/01/2018
                    BASED ON MODFLOW-2005 VERSION 1.12.00 02/03/2017

 LIST FILE: C:/GitHub/FUSE/Modflow/output/Bhima_transient.list
                         UNIT    2

 OPENING C:/GitHub/FUSE/Modflow/output/Bhima_transient.dis
 FILE TYPE:DIS   UNIT   11   STATUS:OLD    
 FORMAT:FORMATTED              ACCESS:SEQUENTIAL          

 OPENING C:/GitHub/FUSE/Modflow/output/Bhima_transient.bas
 FILE TYPE:BAS6   UNIT   13   STATUS:OLD    
 FORMAT:FORMATTED              ACCESS:SEQUENTIAL          

 OPENING C:/GitHub/FUSE/Modflow/output/Bhima_transient.upw
 FILE TYPE:UPW   UNIT   31   STATUS:OLD    
 FORMAT:FORMATTED              ACCESS:SEQUENTIAL          

 OPENING C:/GitHub/FUSE/Modflow/output/Bhima_transient.nwt
 FILE TYPE:NWT   UNIT   32   STATUS:OLD    
 FORMAT:FORMATTED              ACCESS:SEQUENTIAL          

 OPENING C:/GitHub/FUSE/Modflow/output/Bhima_transient.drn
 FILE TYPE:DRN   UNIT   21   STATUS:OLD    
 FORMAT:FORMATTED              ACCESS:SEQUENTIAL          

 OPENING C:/GitHub/FUSE/Modflow/output/Bhima_transient.wel
 FILE TYPE:WEL   UNIT   20   STATUS:OLD    
 FORMAT:FORMATTED              ACCESS:SEQUENTIAL          

 OPENING C:/GitHub/FUSE/Modflow/output/Bhima_transient.rch
 FILE TYPE:RCH   UNIT   19   STATUS:OLD    
 FORMAT:FORMATTED              ACCESS:SEQUENTIAL          

 OPENING C:/GitHub/FUSE/Modflow/output/Bhima_transient.oc
 FILE TYPE:OC   UNIT   14   STATUS:OLD    
 FORMAT:FORMATTED              ACCESS:SEQUENTIAL          

 OPENING C:/GitHub/FUSE/Modflow/output/Bhima_transient.hds
 FILE TYPE:DATA(BINARY)   UNIT   51   STATUS:REPLACE
 FORMAT:BINARY                 ACCESS:SEQUENTIAL          

 OPENING C:/GitHub/FUSE/Modflow/output/Bhima_transient.out
 FILE TYPE:DATA   UNIT   50   STATUS:UNKNOWN
 FORMAT:FORMATTED              ACCESS:SEQUENTIAL          

 BAS -- BASIC PACKAGE, VERSION 1.1.4, 4/01/2018 INPUT READ FROM UNIT   13
 
 MODFLOW was compiled using mixed precision
 Precision of REAL variables:           6
 Precision of DOUBLE PRECISION variables:          15

 DISCRETIZATION INPUT DATA READ FROM UNIT   11
 # DIS package for  MODFLOW-NWT, generated by Flopy.
    1 LAYERS       566 ROWS       586 COLUMNS
    1 STRESS PERIOD(S) IN SIMULATION
 MODEL TIME UNIT IS DAYS
 MODEL LENGTH UNIT IS METERS
  Confining bed flag for each layer:
   0

                     DELR =   500.000    

                     DELC =   500.000    



           TOP ELEVATION OF LAYER 1
 READING ON UNIT   11 WITH FORMAT: (586E15.6)          



             MODEL LAYER BOTTOM EL. FOR LAYER   1
 READING ON UNIT   11 WITH FORMAT: (586E15.6)          


 STRESS PERIOD     LENGTH       TIME STEPS     MULTIPLIER FOR DELT    SS FLAG
 ----------------------------------------------------------------------------
        1         1.000000          1                    1.000         TR

 TRANSIENT SIMULATION



 
 # BAS6 package for  MODFLOW-NWT, generated by Flopy.                            
 THE FREE FORMAT OPTION HAS BEEN SELECTED



                     BOUNDARY ARRAY FOR LAYER   1
 READING ON UNIT   13 WITH FORMAT: (586I10)            

 AQUIFER HEAD WILL BE SET TO  -999.99     AT ALL NO-FLOW NODES (IBOUND=0).



                       INITIAL HEAD FOR LAYER   1
 READING ON UNIT   13 WITH FORMAT: (586E15.6)          
 # OC package for  MODFLOW-NWT, generated by Flopy.

 OUTPUT CONTROL IS SPECIFIED ONLY AT TIME STEPS FOR WHICH OUTPUT IS DESIRED
 COMPACT CELL-BY-CELL BUDGET FILES WILL BE WRITTEN
 AUXILIARY DATA WILL BE SAVED IN CELL-BY-CELL BUDGET FILES
 HEAD PRINT FORMAT CODE IS   0    DRAWDOWN PRINT FORMAT CODE IS   0
 HEADS WILL BE SAVED ON UNIT   51    DRAWDOWNS WILL BE SAVED ON UNIT    0
 # NWT package for  MODFLOW-NWT, generated by Flopy.

 NWT1 -- Newton Solver, VERSION 1.1.4, 4/01/2018
         INPUT READ FROM UNIT 32

 SIMPLE OPTION:
 DEFAULT SOLVER INPUT VALUES REFLECT NEARLY LINEAR MODEL
 ***GMRES linear solver will be used***
 
   CONVERGENCE CRITERION OF   0.100000E-01 FOR HEAD SOLUTION
   AND A TOLERANCE OF   0.500000E+03 FOR FLOW SOLUTION AND 
   A MAXIMUM OF   100 OUTER ITERATIONS. 


   D-B-D REDUCTION FACTOR OF    0.970000E+00 AND 
   A D-B-D INCREASE FACTOR OF    0.100000E-03 AND 
   A D-B-D RELAXATION OF    0.000000E+00 AND 
   A MOMENTUM FACTOR OF    0.000000E+00 .


 ***BACKTRACKING IS INACTIVE***
 GMRES -- LINEAR SOLUTION BY GMRES PACKAGE 
     adapted for HYDROTHERM by Kipp and others (2008)
     using software originally developed by Saad (1990) 32
     using algorithms described in Saad (2003)

 UPW1 -- UPSTREAM WEIGHTING FLOW PACKAGE, VERSION 1.1.4, 4/01/2018
         INPUT READ FROM UNIT 31

 # UPW package for  MODFLOW-NWT, generated by Flopy.
 No named parameters

   LAYER FLAGS:
 LAYER       LAYTYP          LAYAVG    CHANI           LAYVKA           LAYWET
 ---------------------------------------------------------------------------
    1             1             0     1.000E+00             1             0

   INTERPRETATION OF LAYER FLAGS:
                        INTERBLOCK     HORIZONTAL    DATA IN
         LAYER TYPE   TRANSMISSIVITY   ANISOTROPY   ARRAY VKA   WETTABILITY
 LAYER   (LAYTYP)        (LAYAVG)      (CHANI)     (LAYVKA)       (LAYWET)
 ---------------------------------------------------------------------------
    1   CONVERTIBLE      HARMONIC     1.000E+00    ANISOTROPY  NON-WETTABLE



              HYD. COND. ALONG ROWS FOR LAYER   1
 READING ON UNIT   31 WITH FORMAT: (586E15.6)          

  HORIZ. TO VERTICAL ANI. =   5.00000     FOR LAYER   1



                   SPECIFIC STORAGE FOR LAYER   1
 READING ON UNIT   31 WITH FORMAT: (586E15.6)          



                     SPECIFIC YIELD FOR LAYER   1
 READING ON UNIT   31 WITH FORMAT: (586E15.6)          

 WEL -- WELL PACKAGE FOR NWT VERSION 1.1.4,  4/01/2018 INPUT READ FROM UNIT   20
 # WEL package for  MODFLOW-NWT, generated by Flopy.
 No named parameters
 MAXIMUM OF  88612 ACTIVE WELLS AT ONE TIME
 No named parameters
 
 NEGATIVE PUMPING RATES WILL BE REDUCED IF HEAD 
 FALLS WITHIN THE INTERVAL PHIRAMP TIMES THE CELL 
 THICKNESS. THE VALUE SPECIFIED FOR PHIRAMP IS  0.10000E+00
 WELLS WITH REDUCED PUMPING WILL BE REPORTED TO FILE UNIT NUMBER   50


     0 Well parameters

 DRN -- DRAIN PACKAGE, VERSION 7, 5/2/2005 INPUT READ FROM UNIT   21
 # DRN package for  MODFLOW-NWT, generated by Flopy.
 No named parameters
 MAXIMUM OF 331676 ACTIVE DRAINS AT ONE TIME
 LISTS OF DRAIN CELLS WILL NOT BE PRINTED


     0 Drain parameters

 RCH -- RECHARGE PACKAGE, VERSION 7, 5/2/2005 INPUT READ FROM UNIT   19
 # RCH package for  MODFLOW-NWT, generated by Flopy.
 No named parameters
 OPTION 3 -- RECHARGE TO HIGHEST ACTIVE NODE IN EACH VERTICAL COLUMN


     0 Recharge parameters
1
                            STRESS PERIOD NO.    1, LENGTH =   1.000000    
                            -----------------------------------------------

                              NUMBER OF TIME STEPS =     1

                               MULTIPLIER FOR DELT =     1.000

                            INITIAL TIME STEP SIZE =   1.000000    

 WELL NO.  LAYER   ROW   COL   STRESS RATE         
 --------------------------------------------------
      1      1    181      6     -0.1982    
      2      1    182      6      -1.287    
      3      1    183      6     -0.8961    
      4      1    180      7     -0.1072    
      5      1    181      7     -0.3080    
      6      1    182      7      -1.380    
      7      1    183      7     -0.9551    
      8      1    180      8      -1.490    
      9      1    181      8      -1.308    
     10      1    180      9      -1.016    
     11      1    181      9     -0.8961    
     12      1    189     11     -0.3497    
     13      1    190     11     -0.4852    
     14      1    191     11     -0.5631E-01
     15      1    189     12     -0.5446    
     16      1    190     12     -0.7541    
     17      1    191     12     -0.9242E-01
     18      1    189     13     -0.6696E-01
     19      1    190     13     -0.8758E-01
     20      1    191     13      -250.9    
     21      1    192     13      -284.9    
     22      1    193     13     -0.6867    
     23      1    194     13     -0.5691    
     24      1    189     14     -0.6170E-01
     25      1    190     14     -0.9379E-01
     26      1    191     14      -241.0    
     27      1    192     14      -273.3    
     28      1    193     14     -0.6402    
     29      1    194     14     -0.5258    
     30      1    170     15     -0.2060    
     31      1    171     15      -1.448    
     32      1    172     15      -1.025    
     33      1    189     15     -0.5245    
     34      1    190     15     -0.7541    
     35      1    191     15     -0.1126    
     36      1    159     16     -0.9490E-01
     37      1    160     16     -0.5043    
     38      1    161     16     -0.3498    
     39      1    170     16     -0.1657    
     40      1    171     16      -1.218    
     41      1    172     16     -0.8564    
     42      1    189     16     -0.3335    
     43      1    190     16     -0.4790    
     44      1    191     16     -0.7435E-01
     45      1    159     17     -0.9916    
     46      1    160     17      -5.109    
     47      1    161     17      -3.324    
     48      1    156     18     -0.7430    
     49      1    157     18     -0.8516    
     50      1    159     18     -0.6339    
     51      1    160     18      -3.369    
     52      1    161     18      -2.192    
     53      1    180     18     -0.5203    
     54      1    181     18     -0.5937    
     55      1    182     18     -0.6036    
     56      1    183     18     -0.4893    
     57      1    156     19      -2.414    
     58      1    157     19      -2.729    
     59      1    180     19     -0.9973    
     60      1    181     19      -1.128    
     61      1    182     19      -1.128    
     62      1    183     19     -0.9089    
     63      1    156     20      -1.083    
     64      1    157     20      -1.219    
     65      1    159     20     -0.2667    
     66      1    160     20      -1.624    
     67      1    161     20      -1.117    
     68      1    180     20     -0.2390    
     69      1    181     20     -0.2884    
     70      1    182     20      -1.128    
     71      1    183     20     -0.9188    
     72      1    159     21     -0.4426    
     73      1    160     21      -2.788    
     74      1    161     21      -1.913    
     75      1    181     21     -0.2422E-01
     76      1    182     21      -1.109    
     77      1    183     21     -0.9055    
     78      1    145     22      -3.739    
     79      1    146     22      -4.035    
     80      1    147     22      -1.981    
     81      1    148     22      -2.005    
     82      1    149     22      -2.030    
     83      1    150     22      -1.286    
     84      1    159     22     -0.4181    
     85      1    160     22      -2.788    
     86      1    161     22      -1.937    
     87      1    169     22     -0.9438    
     88      1    170     22     -0.9452    
     89      1    145     23      -5.350    
     90      1    146     23      -5.776    
     91      1    147     23      -2.788    
     92      1    148     23      -2.788    
     93      1    149     23      -2.788    
     94      1    150     23      -1.770    
     95      1    152     23     -0.1588E-03
     96      1    153     23     -0.1495E-01
     97      1    154     23     -0.1024E-01
     98      1    159     23     -0.3937    
     99      1    160     23      -2.788    
    100      1    161     23      -1.961    
    101      1    169     23     -0.8855    
    102      1    170     23     -0.8853    
    103      1    130     24      -3.105    
    104      1    131     24      -4.835    
    105      1    132     24     -0.9577    
    106      1    145     24      -5.298    
    107      1    146     24      -5.683    
    108      1    147     24     -0.1312    
    109      1    148     24     -0.6474    
    110      1    149     24      -2.788    
    111      1    150     24      -2.770    
    112      1    151     24      -2.754    
    113      1    152     24      -2.778    
    114      1    153     24      -2.788    
    115      1    154     24     -0.9291    
    116      1    159     24     -0.3694    
    117      1    160     24      -2.788    
    118      1    161     24      -1.986    
    119      1    130     25      -3.622    
    120      1    131     25      -5.615    
    121      1    132     25      -1.451    
    122      1    133     25     -0.4375    
    123      1    134     25     -0.2490E-01
    124      1    145     25      -4.313    
    125      1    146     25      -4.673    
    126      1    147     25     -0.5451    
    127      1    148     25     -0.8868    
    128      1    149     25      -2.195    
    129      1    150     25      -2.170    
    130      1    151     25      -2.146    
    131      1    152     25      -2.122    
    132      1    153     25      -2.098    
    133      1    154     25     -0.7094    
    134      1    159     25     -0.2430    
    135      1    160     25      -1.928    
    136      1    161     25      -1.373    
    137      1    204     25     -0.4421    
    138      1    205     25     -0.5244    
    139      1    226     25     -0.1997    
    140      1    227     25     -0.2822    
    141      1    228     25     -0.3722E-01
    142      1    237     25     -0.2501    
    143      1    238     25     -0.3901    
    144      1    239     25     -0.7798E-01
    145      1    132     26      -4.679    
    146      1    133     26      -5.949    
    147      1    134     26     -0.3466    
    148      1    146     26     -0.7920E-01
    149      1    147     26      -2.788    
    150      1    148     26      -2.276    
    151      1    204     26     -0.6366    
    152      1    205     26     -0.7562    
    153      1    206     26     -0.2292E-02
    154      1    226     26     -0.2250    
    155      1    227     26     -0.3189    
    156      1    228     26     -0.4440E-01
    157      1    237     26     -0.2010    
    158      1    238     26     -0.3122    
    159      1    239     26     -0.6400E-01
    160      1    132     27      -4.627    
    161      1    133     27      -5.949    
    162      1    134     27      -2.201    
    163      1    135     27      -1.816    
    164      1    139     27     -0.8750    
    165      1    140     27      -2.245    
    166      1    141     27      -1.024    
    167      1    143     27      -1.701    
    168      1    144     27      -2.451    
    169      1    145     27     -0.3424    
    170      1    146     27     -0.5502E-01
    171      1    147     27      -2.788    
    172      1    148     27      -2.300    
    173      1    161     27     -0.4073    
    174      1    162     27      -1.582    
    175      1    163     27     -0.9365    
    176      1    204     27     -0.4524E-01
    177      1    205     27     -0.4811E-01
    178      1    206     27     -0.3344E-03
    179      1    209     27     -0.2202    
    180      1    210     27     -0.7404    
    181      1    211     27     -0.4067    
    182      1    226     27     -0.2223    
    183      1    227     27     -0.3189    
    184      1    228     27     -0.4711E-01
    185      1    132     28      -4.575    
    186      1    133     28      -5.949    
    187      1    134     28      -5.949    
    188      1    135     28      -5.475    
    189      1    139     28      -2.321    
    190      1    140     28      -5.949    
    191      1    141     28      -2.705    
    192      1    143     28      -4.168    
    193      1    144     28      -5.949    
    194      1    145     28     -0.8575    
    195      1    146     28     -0.3095E-01
    196      1    147     28      -2.788    
    197      1    148     28      -2.324    
    198      1    161     28     -0.7059    
    199      1    162     28      -2.788    
    200      1    163     28      -1.649    
    201      1    209     28     -0.1735    
    202      1    210     28     -0.5909    
    203      1    211     28     -0.3241    
    204      1    224     28     -0.5737E-01
    205      1    225     28     -0.1102    
    206      1    226     28     -0.1770    
    207      1    227     28     -0.2033    
    208      1    228     28     -0.3120E-01
    209      1    121     29     -0.2775    
    210      1    122     29     -0.3414    
    211      1    123     29     -0.6204E-02
    212      1    132     29      -4.524    
    213      1    133     29      -5.949    
    214      1    134     29      -5.949    
    215      1    135     29      -5.527    
    216      1    139     29     -0.8811    
    217      1    140     29      -2.258    
    218      1    141     29      -3.032    
    219      1    142     29      -3.793    
    220      1    143     29      -5.301    
    221      1    144     29      -5.949    
    222      1    145     29     -0.9088    
    223      1    146     29     -0.4864E-02
    224      1    147     29     -0.8904    
    225      1    148     29     -0.7288    
    226      1    159     29     -0.1941    
    227      1    160     29      -2.209    
    228      1    161     29      -2.368    
    229      1    162     29      -2.788    
    230      1    163     29      -1.673    
    231      1    224     29     -0.1674    
    232      1    225     29     -0.3189    
    233      1    226     29     -0.1020    
    234      1    121     30     -0.6025    
    235      1    122     30     -0.7344    
    236      1    123     30     -0.1787E-01
    237      1    132     30      -4.473    
    238      1    133     30      -5.949    
    239      1    134     30      -5.949    
    240      1    135     30      -5.578    
    241      1    141     30      -3.142    
    242      1    142     30      -5.949    
    243      1    143     30      -5.949    
    244      1    144     30      -5.949    
    245      1    145     30     -0.9599    
    246      1    159     30     -0.2188    
    247      1    160     30      -2.693    
    248      1    161     30      -2.699    
    249      1    162     30      -2.788    
    250      1    163     30      -1.765    
    251      1    164     30     -0.1907    
    252      1    165     30     -0.1434    
    253      1    166     30     -0.9639E-01
    254      1    167     30     -0.1060    
    255      1    168     30     -0.1156    
    256      1    169     30     -0.1252    
    257      1    170     30     -0.1348    
    258      1    171     30     -0.1444    
    259      1    172     30     -0.1540    
    260      1    173     30     -0.1636    
    261      1    174     30     -0.1732    
    262      1    175     30     -0.1828    
    263      1    176     30     -0.9986E-01
    264      1    224     30     -0.6978E-01
    265      1    225     30     -0.1325    
    266      1    226     30     -0.4259E-01
    267      1    108     31      -1.793    
    268      1    109     31      -2.510    
    269      1    110     31     -0.6979    
    270      1    111     31     -0.4508    
    271      1    112     31     -0.4572    
    272      1    113     31     -0.3753    
    273      1    121     31     -0.1790    
    274      1    122     31     -0.2139    
    275      1    123     31     -0.5151    
    276      1    124     31     -0.4682    
    277      1    132     31      -4.422    
    278      1    133     31      -5.949    
    279      1    134     31      -5.949    
    280      1    135     31      -5.629    
    281      1    141     31      -3.091    
    282      1    142     31      -5.949    
    283      1    143     31      -5.949    
    284      1    144     31      -5.949    
    285      1    145     31      -1.011    
    286      1    147     31      -2.536    
    287      1    148     31      -2.232    
    288      1    161     31     -0.6343    
    289      1    162     31      -2.788    
    290      1    163     31      -2.788    
    291      1    164     31      -2.788    
    292      1    165     31      -1.895    
    293      1    166     31      -1.128    
    294      1    167     31      -1.128    
    295      1    168     31      -1.128    
    296      1    169     31      -1.128    
    297      1    170     31      -1.128    
    298      1    171     31      -1.128    
    299      1    172     31      -1.128    
    300      1    173     31      -1.128    
    301      1    174     31      -1.128    
    302      1    175     31      -1.128    
    303      1    176     31     -0.5982    
    304      1    108     32      -3.014    
    305      1    109     32      -4.207    
    306      1    110     32      -1.180    
    307      1    111     32     -0.7344    
    308      1    112     32     -0.7344    
    309      1    113     32     -0.6005    
    310      1    123     32     -0.7039    
    311      1    124     32     -0.6509    
    312      1    128     32     -0.8461E-03
    313      1    132     32      -4.371    
    314      1    133     32      -5.949    
    315      1    134     32      -5.949    
    316      1    135     32      -5.680    
    317      1    141     32      -3.040    
    318      1    142     32      -5.949    
    319      1    143     32      -5.424    
    320      1    144     32      -5.115    
    321      1    145     32     -0.9043    
    322      1    147     32      -2.723    
    323      1    148     32      -2.420    
    324      1    161     32     -0.6106    
    325      1    162     32      -2.788    
    326      1    163     32      -2.788    
    327      1    164     32      -2.788    
    328      1    165     32      -1.909    
    329      1    166     32      -1.128    
    330      1    167     32      -1.128    
    331      1    168     32      -1.128    
    332      1    169     32      -1.128    
    333      1    170     32      -1.128    
    334      1    171     32      -1.128    
    335      1    172     32      -1.128    
    336      1    173     32      -1.128    
    337      1    174     32     -0.9921    
    338      1    175     32     -0.6733    
    339      1    176     32     -0.5719    
    340      1    177     32     -0.4741    
    341      1    178     32     -0.1855    
    342      1    220     32     -0.5885E-01
    343      1    221     32     -0.3150    
    344      1    222     32     -0.2086    
    345      1    104     33      -1.336    
    346      1    105     33      -3.393    
    347      1    106     33      -3.430    
    348      1    107     33      -3.466    
    349      1    108     33      -4.000    
    350      1    109     33      -4.207    
    351      1    110     33      -1.209    
    352      1    111     33     -0.7231    
    353      1    112     33     -0.9786E-01
    354      1    113     33     -0.7578E-01
    355      1    123     33     -0.2719E-01
    356      1    124     33     -0.2022E-01
    357      1    126     33     -0.1893    
    358      1    127     33     -0.7308    
    359      1    128     33     -0.4291    
    360      1    132     33      -4.320    
    361      1    133     33      -5.949    
    362      1    134     33      -5.949    
    363      1    135     33      -5.731    
    364      1    141     33      -2.989    
    365      1    142     33      -5.949    
    366      1    143     33      -2.036    
    367      1    147     33      -2.700    
    368      1    148     33      -2.444    
    369      1    161     33     -0.5870    
    370      1    162     33      -2.788    
    371      1    163     33      -2.788    
    372      1    164     33      -2.788    
    373      1    165     33      -1.923    
    374      1    166     33      -1.128    
    375      1    167     33      -1.128    
    376      1    168     33      -1.128    
    377      1    169     33      -1.128    
    378      1    170     33      -1.128    
    379      1    171     33      -1.128    
    380      1    172     33      -1.128    
    381      1    173     33      -1.128    
    382      1    174     33     -0.7926    
    383      1    176     33     -0.5110    
    384      1    177     33      -1.128    
    385      1    178     33     -0.4421    
    386      1    220     33     -0.7027E-01
    387      1    221     33     -0.3870    
    388      1    222     33     -0.2551    
    389      1    104     34      -1.636    
    390      1    105     34      -4.207    
    391      1    106     34      -4.207    
    392      1    107     34      -4.207    
    393      1    108     34      -3.978    
    394      1    109     34      -3.848    
    395      1    110     34      -1.182    
    396      1    111     34     -0.7276    
    397      1    112     34     -0.8150E-01
    398      1    113     34     -0.7318E-01
    399      1    126     34     -0.1764    
    400      1    127     34     -0.6993    
    401      1    128     34      -1.014    
    402      1    129     34      -1.521    
    403      1    130     34     -0.6866    
    404      1    132     34      -4.269    
    405      1    133     34      -5.949    
    406      1    134     34      -4.403    
    407      1    135     34      -4.003    
    408      1    141     34      -1.887    
    409      1    142     34      -3.771    
    410      1    143     34      -2.751    
    411      1    144     34      -2.278    
    412      1    145     34     -0.4572    
    413      1    147     34      -1.586    
    414      1    148     34      -1.569    
    415      1    149     34      -1.186    
    416      1    150     34     -0.8830    
    417      1    156     34     -0.9938    
    418      1    157     34      -1.374    
    419      1    158     34     -0.1535    
    420      1    161     34     -0.5634    
    421      1    162     34      -2.788    
    422      1    163     34      -2.788    
    423      1    164     34      -2.788    
    424      1    165     34      -1.937    
    425      1    166     34      -1.128    
    426      1    167     34      -1.128    
    427      1    168     34      -1.128    
    428      1    169     34      -1.128    
    429      1    170     34      -1.128    
    430      1    171     34      -1.128    
    431      1    172     34      -1.128    
    432      1    173     34      -1.128    
    433      1    174     34     -0.8021    
    434      1    176     34     -0.1739    
    435      1    177     34     -0.3821    
    436      1    178     34     -0.1492    
    437      1    104     35      -1.600    
    438      1    105     35      -4.207    
    439      1    106     35      -4.207    
    440      1    107     35      -4.207    
    441      1    108     35      -1.301    
    442      1    110     35     -0.6214    
    443      1    111     35     -0.7344    
    444      1    112     35     -0.7344    
    445      1    113     35     -0.6194    
    446      1    126     35     -0.1430    
    447      1    127     35     -0.5875    
    448      1    128     35      -2.725    
    449      1    129     35      -5.949    
    450      1    130     35      -2.654    
    451      1    132     35      -4.219    
    452      1    133     35      -5.949    
    453      1    134     35     -0.8064    
    454      1    143     35      -3.812    
    455      1    144     35      -5.949    
    456      1    145     35      -1.213    
    457      1    148     35     -0.2974    
    458      1    149     35      -2.788    
    459      1    150     35      -2.058    
    460      1    156     35      -2.029    
    461      1    157     35      -2.788    
    462      1    158     35     -0.3260    
    463      1    161     35     -0.5400    
    464      1    162     35      -2.788    
    465      1    163     35      -2.788    
    466      1    164     35      -2.788    
    467      1    165     35      -1.951    
    468      1    166     35      -1.128    
    469      1    167     35      -1.128    
    470      1    168     35      -1.128    
    471      1    169     35      -1.128    
    472      1    170     35      -1.128    
    473      1    171     35      -1.128    
    474      1    172     35      -1.128    
    475      1    173     35      -1.128    
    476      1    174     35     -0.8115    
    477      1    193     35     -0.1271    
    478      1    194     35     -0.1849    
    479      1    195     35     -0.2195    
    480      1    196     35     -0.2163    
    481      1    242     35     -0.1189E-01
    482      1    243     35     -0.4622    
    483      1    244     35     -0.3847    
    484      1    104     36      -1.114    
    485      1    105     36      -2.963    
    486      1    106     36      -2.927    
    487      1    107     36      -2.891    
    488      1    108     36      -1.302    
    489      1    109     36     -0.5935    
    490      1    110     36     -0.8166    
    491      1    111     36     -0.8593    
    492      1    112     36     -0.8623    
    493      1    113     36     -0.7958    
    494      1    114     36     -0.4074    
    495      1    115     36     -0.2904    
    496      1    126     36     -0.1943    
    497      1    127     36     -0.8320    
    498      1    128     36      -2.284    
    499      1    129     36      -4.522    
    500      1    130     36      -2.900    
    501      1    131     36      -1.595    
    502      1    132     36      -2.469    
    503      1    133     36      -2.778    
    504      1    134     36      -1.820    
    505      1    135     36      -1.683    
    506      1    141     36     -0.8853    
    507      1    142     36      -1.881    
    508      1    143     36      -3.347    
    509      1    144     36      -4.160    
    510      1    145     36     -0.8774    
    511      1    148     36     -0.9485E-01
    512      1    149     36     -0.9262    
    513      1    150     36     -0.6735    
    514      1    156     36     -0.5482    
    515      1    157     36     -0.7387    
    516      1    158     36     -0.8868E-01
    517      1    161     36      -1.261    
    518      1    162     36      -6.851    
    519      1    163     36      -6.895    
    520      1    164     36      -6.939    
    521      1    165     36      -4.253    
    522      1    166     36      -1.486    
    523      1    167     36     -0.6521    
    524      1    168     36     -0.1949    
    525      1    169     36     -0.1854    
    526      1    170     36     -0.1760    
    527      1    171     36     -0.1665    
    528      1    172     36     -0.1571    
    529      1    173     36     -0.1476    
    530      1    174     36     -0.1010    
    531      1    193     36      -3.437    
    532      1    194     36      -4.164    
    533      1    195     36      -4.164    
    534      1    196     36      -3.596    
    535      1    242     36     -0.2058E-01
    536      1    243     36      -1.027    
    537      1    244     36     -0.8471    
    538      1    108     37      -1.213    
    539      1    109     37      -1.800    
    540      1    110     37      -1.215    
    541      1    111     37      -1.095    
    542      1    112     37      -1.095    
    543      1    113     37      -1.095    
    544      1    114     37      -1.095    
    545      1    115     37     -0.7718    
    546      1    126     37     -0.2479    
    547      1    127     37      -1.095    
    548      1    128     37      -1.856    
    549      1    129     37      -3.090    
    550      1    130     37      -3.090    
    551      1    131     37      -3.090    
    552      1    132     37     -0.9508    
    553      1    134     37      -2.619    
    554      1    135     37      -3.081    
    555      1    136     37     -0.3435E-03
    556      1    141     37      -1.448    
    557      1    142     37      -3.090    
    558      1    143     37      -3.090    
    559      1    144     37      -3.090    
    560      1    145     37     -0.6821    
    561      1    160     37      -1.308    
    562      1    161     37      -5.727    
    563      1    162     37      -7.866    
    564      1    163     37      -7.799    
    565      1    164     37      -7.732    
    566      1    165     37      -4.665    
    567      1    166     37      -1.487    
    568      1    167     37     -0.5899    
    569      1    168     37     -0.1082    
    570      1    169     37     -0.2388E-01
    571      1    185     37     -0.1714    
    572      1    186     37     -0.9099    
    573      1    187     37     -0.6118    
    574      1    193     37      -2.463    
    575      1    194     37      -2.978    
    576      1    195     37      -4.127    
    577      1    196     37      -3.631    
    578      1    242     37     -0.4749E-02
    579      1    243     37     -0.3204    
    580      1    244     37     -0.2595    
    581      1    108     38      -1.198    
    582      1    109     38      -1.800    
    583      1    110     38      -1.221    
    584      1    111     38      -1.095    
    585      1    112     38      -1.095    
    586      1    113     38      -1.095    
    587      1    114     38      -1.095    
    588      1    115     38     -0.7810    
    589      1    124     38     -0.3796E-01
    590      1    125     38     -0.6208    
    591      1    126     38     -0.5589    
    592      1    127     38     -0.3001    
    593      1    128     38      -1.336    
    594      1    129     38      -3.090    
    595      1    130     38      -3.090    
    596      1    131     38      -3.090    
    597      1    132     38      -2.600    
    598      1    133     38      -2.398    
    599      1    134     38     -0.9493    
    600      1    135     38     -0.6395    
    601      1    136     38     -0.1391E-02
    602      1    141     38      -1.422    
    603      1    142     38      -3.090    
    604      1    143     38      -1.452    
    605      1    144     38     -0.4064    
    606      1    145     38      -2.178    
    607      1    146     38      -2.735    
    608      1    147     38      -6.839    
    609      1    148     38      -6.643    
    610      1    156     38      -5.464    
    611      1    157     38      -7.835    
    612      1    158     38      -1.119    
    613      1    159     38      -7.011    
    614      1    160     38      -530.1    
    615      1    161     38      -440.9    
    616      1    167     38     -0.9957    
    617      1    168     38      -1.569    
    618      1    169     38     -0.3299    
    619      1    185     38     -0.7814    
    620      1    186     38      -4.164    
    621      1    187     38      -2.735    
    622      1    195     38      -4.015    
    623      1    196     38      -3.665    
    624      1    108     39      -1.183    
    625      1    109     39      -1.800    
    626      1    110     39      -1.227    
    627      1    111     39      -1.095    
    628      1    112     39      -1.095    
    629      1    113     39      -1.095    
    630      1    114     39      -1.095    
    631      1    115     39     -0.7902    
    632      1    124     39     -0.4762E-01
    633      1    125     39     -0.8756    
    634      1    126     39     -0.6920    
    635      1    128     39      -1.128    
    636      1    129     39      -3.090    
    637      1    130     39      -3.090    
    638      1    131     39      -3.081    
    639      1    132     39      -3.081    
    640      1    133     39      -3.090    
    641      1    134     39     -0.5229    
    642      1    136     39     -0.1354    
    643      1    137     39     -0.1634    
    644      1    138     39     -0.1892    
    645      1    139     39     -0.1494    
    646      1    141     39      -1.396    
    647      1    142     39      -3.090    
    648      1    143     39      -1.409    
    649      1    144     39     -0.3437    
    650      1    145     39      -2.160    
    651      1    146     39      -2.695    
    652      1    147     39      -6.576    
    653      1    148     39      -6.438    
    654      1    149     39      -1.226    
    655      1    150     39     -0.9958    
    656      1    156     39      -5.567    
    657      1    157     39      -8.017    
    658      1    158     39      -1.206    
    659      1    159     39      -2.619    
    660      1    160     39      -531.4    
    661      1    161     39      -446.3    
    662      1    167     39     -0.6854    
    663      1    168     39      -1.082    
    664      1    169     39     -0.6240    
    665      1    170     39     -0.5134    
    666      1    171     39     -0.3431E-01
    667      1    174     39     -0.1396    
    668      1    175     39     -0.5783    
    669      1    176     39     -0.3531    
    670      1    178     39     -0.2756    
    671      1    179     39     -0.5041    
    672      1    180     39     -0.1476    
    673      1    185     39     -0.4118    
    674      1    186     39      -2.251    
    675      1    187     39      -1.474    
    676      1    195     39      -1.861    
    677      1    196     39      -1.693    
    678      1    209     39     -0.3689E-01
    679      1    210     39     -0.1882    
    680      1    211     39     -0.1231    
    681      1    104     40     -0.4729    
    682      1    105     40      -1.413    
    683      1    106     40      -1.428    
    684      1    107     40      -1.443    
    685      1    108     40     -0.7330    
    686      1    109     40     -0.3266    
    687      1    110     40     -0.2134    
    688      1    111     40     -0.1802    
    689      1    112     40      -1.056    
    690      1    113     40      -1.095    
    691      1    114     40      -1.095    
    692      1    115     40      -63.70    
    693      1    116     40      -235.2    
    694      1    117     40      -136.8    
    695      1    118     40     -0.9786    
    696      1    119     40     -0.4140    
    697      1    124     40     -0.2264E-02
    698      1    125     40     -0.4146E-01
    699      1    126     40     -0.2773E-01
    700      1    128     40     -0.2183E-01
    701      1    129     40     -0.4296E-01
    702      1    130     40     -0.1714E-01
    703      1    131     40     -0.3468E-03
    704      1    132     40      -2.061    
    705      1    133     40      -3.090    
    706      1    134     40     -0.5487    
    707      1    136     40      -3.021    
    708      1    137     40      -3.090    
    709      1    138     40      -3.090    
    710      1    139     40      -2.199    
    711      1    141     40      -1.371    
    712      1    142     40      -3.090    
    713      1    143     40      -3.090    
    714      1    144     40      -3.090    
    715      1    145     40     -0.7595    
    716      1    148     40     -0.5195    
    717      1    149     40      -8.017    
    718      1    150     40      -6.253    
    719      1    156     40      -5.500    
    720      1    157     40      -8.017    
    721      1    158     40      -1.272    
    722      1    159     40     -0.1989E-01
    723      1    160     40      -533.1    
    724      1    161     40      -453.6    
    725      1    169     40      -1.213    
    726      1    170     40      -1.569    
    727      1    171     40     -0.1121    
    728      1    174     40     -0.3754    
    729      1    175     40      -1.569    
    730      1    176     40     -0.9501    
    731      1    178     40     -0.6903    
    732      1    179     40      -1.255    
    733      1    180     40     -0.3701    
    734      1    209     40     -0.5466E-01
    735      1    210     40     -0.2866    
    736      1    211     40     -0.1874    
    737      1    243     40     -0.1663    
    738      1    244     40     -0.1521    
    739      1    104     41     -0.5934    
    740      1    105     41      -1.800    
    741      1    106     41      -1.800    
    742      1    107     41      -1.800    
    743      1    108     41     -0.6476    
    744      1    110     41     -0.6254E-01
    745      1    111     41     -0.8719E-01
    746      1    112     41      -1.046    
    747      1    113     41      -1.083    
    748      1    114     41     -0.9800    
    749      1    115     41      -62.74    
    750      1    116     41      -235.5    
    751      1    117     41      -136.7    
    752      1    118     41      -1.095    
    753      1    119     41     -0.4687    
    754      1    128     41     -0.2388    
    755      1    129     41     -0.7093    
    756      1    130     41     -0.7350    
    757      1    131     41     -0.7607    
    758      1    132     41      -1.785    
    759      1    133     41      -2.278    
    760      1    134     41      -1.099    
    761      1    135     41     -0.8633    
    762      1    136     41      -2.165    
    763      1    137     41      -2.288    
    764      1    138     41      -3.090    
    765      1    139     41      -2.495    
    766      1    140     41     -0.9914    
    767      1    141     41      -1.919    
    768      1    142     41      -3.090    
    769      1    143     41      -2.459    
    770      1    144     41      -1.996    
    771      1    145     41     -0.5002    
    772      1    148     41     -0.9383    
    773      1    149     41      -17.11    
    774      1    150     41      -13.64    
    775      1    156     41      -5.434    
    776      1    157     41      -8.018    
    777      1    158     41      -4.472    
    778      1    159     41      -3.833    
    779      1    160     41      -272.2    
    780      1    161     41      -307.2    
    781      1    162     41      -541.4    
    782      1    163     41      -385.9    
    783      1    169     41     -0.5281    
    784      1    170     41     -0.6768    
    785      1    171     41     -0.5181E-01
    786      1    174     41     -0.1448    
    787      1    175     41     -0.6123    
    788      1    176     41     -0.3679    
    789      1    178     41     -0.7878    
    790      1    179     41      -1.457    
    791      1    180     41      -1.154    
    792      1    181     41      -1.034    
    793      1    182     41     -0.1553    
    794      1    185     41     -0.4682    
    795      1    186     41      -2.915    
    796      1    187     41      -2.010    
    797      1    200     41      -1.378    
    798      1    201     41      -3.426    
    799      1    202     41      -1.517    
    800      1    209     41     -0.5785E-02
    801      1    210     41     -0.2969E-01
    802      1    211     41     -0.1827E-01
    803      1    243     41      -1.006    
    804      1    244     41     -0.8889    
    805      1    104     42     -0.5783    
    806      1    105     42      -1.800    
    807      1    106     42      -1.800    
    808      1    107     42      -1.800    
    809      1    108     42     -0.6627    
    810      1    110     42     -0.8615    
    811      1    111     42      -1.095    
    812      1    112     42      -1.095    
    813      1    113     42     -0.9877    
    814      1    117     42     -0.4468    
    815      1    118     42      -1.095    
    816      1    119     42     -0.4778    
    817      1    128     42      -1.050    
    818      1    129     42      -3.090    
    819      1    130     42      -3.090    
    820      1    131     42      -3.090    
    821      1    132     42      -1.080    
    822      1    134     42      -2.490    
    823      1    135     42      -3.090    
    824      1    136     42     -0.1201    
    825      1    137     42     -0.3597    
    826      1    138     42      -3.090    
    827      1    139     42      -3.090    
    828      1    140     42      -3.090    
    829      1    141     42      -3.090    
    830      1    142     42      -3.090    
    831      1    143     42      -1.291    
    832      1    148     42      -1.496    
    833      1    149     42      -31.00    
    834      1    150     42      -24.69    
    835      1    156     42      -5.368    
    836      1    157     42      -8.018    
    837      1    158     42      -8.018    
    838      1    159     42      -8.018    
    839      1    160     42     -0.1592    
    840      1    161     42      -145.9    
    841      1    162     42      -1077.    
    842      1    163     42      -763.8    
    843      1    178     42     -0.8371    
    844      1    179     42      -1.569    
    845      1    180     42      -1.569    
    846      1    181     42      -1.569    
    847      1    182     42     -0.2446    
    848      1    185     42     -0.6445    
    849      1    186     42      -4.164    
    850      1    187     42      -2.872    
    851      1    200     42      -1.561    
    852      1    201     42      -3.901    
    853      1    202     42      -1.732    
    854      1    211     42     -0.1718E-01
    855      1    212     42     -0.5458E-01
    856      1    213     42     -0.2943E-01
    857      1    243     42     -0.5969    
    858      1    244     42     -0.5282    
    859      1    104     43     -0.4134    
    860      1    105     43      -1.306    
    861      1    106     43      -1.292    
    862      1    107     43      -1.277    
    863      1    108     43      -236.8    
    864      1    109     43      -389.4    
    865      1    110     43      -89.54    
    866      1    111     43      -1.095    
    867      1    112     43     -0.7556    
    868      1    113     43     -0.6893    
    869      1    114     43     -0.3819    
    870      1    115     43     -0.3909    
    871      1    116     43     -0.4000    
    872      1    117     43     -0.6832    
    873      1    118     43      -1.095    
    874      1    119     43     -0.7241    
    875      1    120     43     -0.4363    
    876      1    121     43     -0.1291    
    877      1    128     43     -0.5488    
    878      1    129     43      -1.628    
    879      1    130     43      -2.327    
    880      1    131     43      -3.090    
    881      1    132     43      -1.105    
    882      1    134     43      -1.198    
    883      1    135     43      -1.475    
    884      1    136     43      -1.626    
    885      1    137     43      -1.643    
    886      1    138     43      -1.399    
    887      1    139     43      -1.825    
    888      1    140     43      -3.090    
    889      1    141     43      -3.090    
    890      1    142     43      -3.090    
    891      1    143     43      -1.316    
    892      1    148     43     -0.4840    
    893      1    149     43      -11.23    
    894      1    150     43      -8.819    
    895      1    156     43      -5.302    
    896      1    157     43      -8.018    
    897      1    158     43      -3.359    
    898      1    159     43      -2.244    
    899      1    160     43     -0.5550E-01
    900      1    161     43      -36.47    
    901      1    162     43      -274.9    
    902      1    163     43      -192.7    
    903      1    164     43      -6.102    
    904      1    165     43      -3.465    
    905      1    178     43     -0.1016    
    906      1    179     43     -0.1823    
    907      1    180     43     -0.1695    
    908      1    181     43     -0.1567    
    909      1    182     43     -0.2393E-01
    910      1    185     43     -0.3991E-01
    911      1    186     43     -0.2458    
    912      1    187     43     -0.1507    
    913      1    191     43      -2.508    
    914      1    192     43      -4.121    
    915      1    193     43     -0.9609    
    916      1    211     43     -0.1153    
    917      1    212     43     -0.3583    
    918      1    213     43     -0.1874    
    919      1    108     44      -779.3    
    920      1    109     44      -1267.    
    921      1    110     44      -291.6    
    922      1    111     44      -1.095    
    923      1    112     44     -0.8123E-01
    924      1    113     44     -0.8873E-01
    925      1    114     44      -1.095    
    926      1    115     44      -1.095    
    927      1    116     44      -1.095    
    928      1    117     44      -1.095    
    929      1    118     44      -1.095    
    930      1    119     44      -1.095    
    931      1    120     44      -1.095    
    932      1    121     44     -0.3259    
    933      1    130     44      -1.479    
    934      1    131     44      -3.090    
    935      1    132     44      -1.131    
    936      1    136     44      -2.919    
    937      1    137     44      -2.781    
    938      1    139     44     -0.7887    
    939      1    140     44      -3.090    
    940      1    141     44      -3.090    
    941      1    142     44      -3.090    
    942      1    143     44      -1.341    
    943      1    156     44      -5.236    
    944      1    157     44      -8.018    
    945      1    158     44      -1.536    
    946      1    163     44      -2.200    
    947      1    164     44      -7.993    
    948      1    165     44      -4.538    
    949      1    166     44     -0.3020E-01
    950      1    167     44     -0.1645E-01
    951      1    184     44     -0.6758    
    952      1    185     44     -0.6234    
    953      1    191     44      -1.956    
    954      1    192     44      -3.204    
    955      1    193     44     -0.7612    
    956      1    211     44     -0.1037    
    957      1    212     44     -0.3302    
    958      1    213     44     -0.1750    
    959      1     97     45     -0.5499    
    960      1     98     45     -0.8296    
    961      1     99     45     -0.1439    
    962      1    106     45     -0.4285    
    963      1    107     45     -0.9635    
    964      1    108     45      -352.0    
    965      1    109     45      -568.8    
    966      1    110     45      -132.8    
    967      1    111     45     -0.4725    
    968      1    112     45     -0.6157    
    969      1    113     45     -0.6740    
    970      1    114     45      -1.095    
    971      1    115     45      -1.095    
    972      1    116     45      -1.095    
    973      1    117     45      -1.095    
    974      1    118     45      -1.095    
    975      1    119     45      -1.095    
    976      1    120     45      -1.095    
    977      1    121     45     -0.3350    
    978      1    130     45      -1.454    
    979      1    131     45      -3.090    
    980      1    132     45      -2.590    
    981      1    133     45      -2.316    
    982      1    134     45      -2.341    
    983      1    135     45      -2.366    
    984      1    136     45     -0.8090    
    985      1    137     45     -0.8308    
    986      1    138     45      -2.442    
    987      1    139     45      -2.011    
    988      1    140     45     -0.5970    
    989      1    141     45     -0.5717    
    990      1    142     45     -0.5464    
    991      1    143     45     -0.2318    
    992      1    152     45      -2.430    
    993      1    153     45      -7.322    
    994      1    154     45      -7.387    
    995      1    155     45      -7.453    
    996      1    156     45      -7.835    
    997      1    157     45      -8.018    
    998      1    158     45      -1.602    
    999      1    163     45     -0.4836E-02
   1000      1    164     45     -0.6279E-03
   1001      1    165     45     -0.6616    
   1002      1    166     45      -1.569    
   1003      1    167     45     -0.6639    
   1004      1    184     45      -4.060    
   1005      1    185     45      -3.621    
   1006      1    211     45     -0.8758E-01
   1007      1    212     45     -0.2866    
   1008      1    213     45     -0.1545    
   1009      1    261     45     -0.1259E-01
   1010      1    262     45     -0.3158E-01
   1011      1    263     45     -0.1291E-01
   1012      1     97     46      -1.201    
   1013      1     98     46      -1.800    
   1014      1     99     46     -0.3199    
   1015      1    106     46     -0.7982    
   1016      1    107     46      -1.800    
   1017      1    108     46      -1.800    
   1018      1    109     46      -1.800    
   1019      1    110     46     -0.4428    
   1020      1    112     46     -0.9953    
   1021      1    113     46      -1.095    
   1022      1    114     46      -1.095    
   1023      1    115     46      -1.095    
   1024      1    116     46      -1.095    
   1025      1    117     46      -1.095    
   1026      1    118     46      -1.095    
   1027      1    119     46      -1.095    
   1028      1    120     46      -1.095    
   1029      1    121     46     -0.3440    
   1030      1    130     46      -1.428    
   1031      1    131     46      -3.090    
   1032      1    132     46      -3.090    
   1033      1    133     46      -3.090    
   1034      1    134     46      -3.085    
   1035      1    135     46      -3.062    
   1036      1    136     46     -0.2187    
   1037      1    137     46     -0.2581    
   1038      1    138     46      -3.090    
   1039      1    139     46      -2.384    
   1040      1    140     46     -0.1538    
   1041      1    141     46     -0.1061    
   1042      1    143     46     -0.1282    
   1043      1    144     46     -0.2544    
   1044      1    145     46     -0.2796    
   1045      1    146     46     -0.3047    
   1046      1    147     46     -0.7829    
   1047      1    148     46     -0.9099    
   1048      1    152     46      -2.226    
   1049      1    153     46      -6.771    
   1050      1    154     46      -7.341    
   1051      1    155     46      -8.018    
   1052      1    156     46      -8.018    
   1053      1    157     46      -8.018    
   1054      1    158     46      -1.667    
   1055      1    165     46     -0.4844    
   1056      1    166     46      -1.160    
   1057      1    167     46     -0.4949    
   1058      1    182     46     -0.4966    
   1059      1    183     46     -0.6252    
   1060      1    184     46      -4.049    
   1061      1    185     46      -3.654    
   1062      1    211     46     -0.3213E-01
   1063      1    212     46     -0.1056    
   1064      1    213     46     -0.5654E-01
   1065      1    255     46     -0.2725E-01
   1066      1    256     46      -1.009    
   1067      1    257     46     -0.8310    
   1068      1    261     46     -0.5216    
   1069      1    262     46      -1.057    
   1070      1    263     46     -0.3711    
   1071      1     97     47      -1.186    
   1072      1     98     47      -1.800    
   1073      1     99     47     -0.3347    
   1074      1    106     47     -0.1784    
   1075      1    107     47     -0.3963    
   1076      1    108     47     -0.3816    
   1077      1    109     47     -0.3668    
   1078      1    110     47     -0.8972E-01
   1079      1    112     47     -0.1770    
   1080      1    113     47     -0.2379    
   1081      1    114     47      -1.095    
   1082      1    115     47      -1.095    
   1083      1    116     47      -1.095    
   1084      1    117     47      -1.095    
   1085      1    118     47      -1.095    
   1086      1    119     47      -1.095    
   1087      1    120     47      -1.095    
   1088      1    121     47      -1.017    
   1089      1    122     47     -0.9882    
   1090      1    123     47     -0.9971    
   1091      1    124     47      -1.006    
   1092      1    125     47     -0.1225E-01
   1093      1    130     47     -0.4191E-01
   1094      1    131     47     -0.7309E-01
   1095      1    132     47     -0.4786E-01
   1096      1    133     47     -0.2264E-01
   1097      1    134     47     -0.1993E-02
   1098      1    137     47     -0.2329    
   1099      1    138     47      -3.090    
   1100      1    139     47      -3.090    
   1101      1    140     47      -3.090    
   1102      1    141     47      -1.897    
   1103      1    143     47      -1.673    
   1104      1    144     47      -3.090    
   1105      1    145     47      -3.090    
   1106      1    146     47      -3.090    
   1107      1    147     47      -7.288    
   1108      1    148     47      -7.959    
   1109      1    154     47      -3.795    
   1110      1    155     47      -8.018    
   1111      1    156     47      -8.018    
   1112      1    157     47      -8.018    
   1113      1    158     47      -1.732    
   1114      1    182     47      -1.261    
   1115      1    183     47      -1.569    
   1116      1    184     47      -4.057    
   1117      1    185     47      -3.688    
   1118      1    255     47     -0.1623E-01
   1119      1    256     47     -0.8014    
   1120      1    257     47     -0.6546    
   1121      1    261     47     -0.3799    
   1122      1    262     47     -0.7746    
   1123      1    263     47     -0.2752    
   1124      1     97     48      -1.171    
   1125      1     98     48      -1.800    
   1126      1     99     48     -0.3495    
   1127      1    108     48     -0.3564E-01
   1128      1    109     48     -0.7321E-01
   1129      1    110     48     -0.2197E-01
   1130      1    112     48     -0.6384E-01
   1131      1    113     48     -0.1255    
   1132      1    114     48      -1.005    
   1133      1    115     48      -1.017    
   1134      1    116     48      -1.095    
   1135      1    117     48      -1.095    
   1136      1    118     48      -1.095    
   1137      1    119     48      -1.095    
   1138      1    120     48      -1.095    
   1139      1    121     48     -0.9927    
   1140      1    122     48     -0.9341    
   1141      1    123     48      -1.065    
   1142      1    124     48      -1.095    
   1143      1    125     48     -0.2185E-01
   1144      1    137     48     -0.2078    
   1145      1    138     48      -3.090    
   1146      1    139     48      -3.090    
   1147      1    140     48      -3.090    
   1148      1    141     48      -1.922    
   1149      1    143     48      -1.125    
   1150      1    144     48      -2.085    
   1151      1    145     48      -2.060    
   1152      1    146     48      -2.035    
   1153      1    147     48      -4.718    
   1154      1    148     48      -5.146    
   1155      1    149     48     -0.1782E-02
   1156      1    154     48      -3.730    
   1157      1    155     48      -8.018    
   1158      1    156     48      -5.918    
   1159      1    157     48      -4.568    
   1160      1    158     48      -3.731    
   1161      1    159     48      -3.579    
   1162      1    160     48      -3.643    
   1163      1    161     48      -3.392    
   1164      1    171     48     -0.7349    
   1165      1    172     48     -0.8500    
   1166      1    182     48      -1.248    
   1167      1    183     48      -1.569    
   1168      1    184     48      -4.036    
   1169      1    185     48      -3.721    
   1170      1    195     48      -2.703    
   1171      1    196     48      -2.979    
   1172      1    209     48     -0.3828E-01
   1173      1    210     48     -0.3065    
   1174      1    211     48     -0.2221    
   1175      1     58     49     -0.2901    
   1176      1     59     49     -0.7701    
   1177      1     60     49     -0.3612    
   1178      1     65     49     -0.1312E-02
   1179      1     66     49     -0.8405    
   1180      1     67     49     -0.7168    
   1181      1     80     49     -0.2720    
   1182      1     81     49      -1.122    
   1183      1     82     49     -0.6792    
   1184      1     97     49     -0.6507E-01
   1185      1     98     49     -0.8857E-01
   1186      1     99     49     -0.1583E-01
   1187      1    108     49      -1.033    
   1188      1    109     49      -1.800    
   1189      1    110     49     -0.4870    
   1190      1    112     49     -0.9684    
   1191      1    113     49      -1.051    
   1192      1    115     49     -0.2138    
   1193      1    116     49      -1.095    
   1194      1    117     49      -1.095    
   1195      1    118     49      -1.095    
   1196      1    119     49      -1.095    
   1197      1    120     49      -1.095    
   1198      1    121     49     -0.3708    
   1199      1    123     49     -0.8938    
   1200      1    124     49      -1.095    
   1201      1    125     49     -0.3075E-01
   1202      1    137     49     -0.1828    
   1203      1    138     49      -3.090    
   1204      1    139     49      -3.090    
   1205      1    140     49      -3.090    
   1206      1    141     49      -1.947    
   1207      1    154     49      -3.666    
   1208      1    155     49      -8.018    
   1209      1    156     49      -3.107    
   1210      1    158     49      -6.157    
   1211      1    159     49      -8.018    
   1212      1    160     49      -8.018    
   1213      1    161     49      -7.388    
   1214      1    171     49      -1.342    
   1215      1    172     49      -1.553    
   1216      1    182     49      -1.236    
   1217      1    183     49      -1.569    
   1218      1    184     49      -4.016    
   1219      1    185     49      -3.755    
   1220      1    195     49      -3.644    
   1221      1    196     49      -4.037    
   1222      1    209     49     -0.3863E-01
   1223      1    210     49     -0.3242    
   1224      1    211     49     -0.2336    
   1225      1     58     50     -0.4563    
   1226      1     59     50      -1.222    
   1227      1     60     50     -0.5759    
   1228      1     66     50      -1.215    
   1229      1     67     50      -1.039    
   1230      1     77     50     -0.3168E-01
   1231      1     78     50     -0.4131E-01
   1232      1     80     50     -0.3103    
   1233      1     81     50      -1.303    
   1234      1     82     50     -0.7866    
   1235      1     95     50     -0.1485    
   1236      1     96     50     -0.3231    
   1237      1     97     50     -0.1230    
   1238      1    108     50     -0.7363    
   1239      1    109     50      -1.287    
   1240      1    110     50     -0.5860    
   1241      1    111     50     -0.3298    
   1242      1    112     50     -0.7053    
   1243      1    113     50     -0.7326    
   1244      1    114     50     -0.3565    
   1245      1    115     50     -0.5022    
   1246      1    116     50      -1.095    
   1247      1    117     50      -1.095    
   1248      1    118     50      -1.095    
   1249      1    119     50      -1.095    
   1250      1    120     50      -1.095    
   1251      1    121     50     -0.6529    
   1252      1    122     50     -0.4274    
   1253      1    123     50     -0.6166    
   1254      1    124     50     -0.6495    
   1255      1    125     50     -0.4588    
   1256      1    126     50     -0.4083    
   1257      1    130     50     -0.6043    
   1258      1    131     50      -1.431    
   1259      1    132     50     -0.6042    
   1260      1    137     50     -0.1578    
   1261      1    138     50      -3.090    
   1262      1    139     50      -3.090    
   1263      1    140     50      -3.090    
   1264      1    141     50      -1.972    
   1265      1    143     50     -0.8946    
   1266      1    144     50      -1.755    
   1267      1    145     50     -0.5833    
   1268      1    154     50      -3.601    
   1269      1    155     50      -8.018    
   1270      1    156     50      -3.171    
   1271      1    158     50      -6.092    
   1272      1    159     50      -8.018    
   1273      1    160     50      -8.018    
   1274      1    161     50      -7.452    
   1275      1    165     50     -0.4409    
   1276      1    166     50      -1.168    
   1277      1    167     50     -0.5469    
   1278      1    171     50     -0.2867    
   1279      1    172     50     -0.3237    
   1280      1    182     50     -0.1557    
   1281      1    183     50     -0.1877    
   1282      1    184     50      -3.904    
   1283      1    185     50      -3.788    
   1284      1    195     50      -3.611    
   1285      1    196     50      -4.070    
   1286      1     58     51     -0.5790E-01
   1287      1     59     51     -0.1501    
   1288      1     60     51     -0.6793E-01
   1289      1     66     51     -0.7917E-01
   1290      1     67     51     -0.6044E-01
   1291      1     77     51      -1.269    
   1292      1     78     51      -1.281    
   1293      1     95     51     -0.8474    
   1294      1     96     51      -1.800    
   1295      1     97     51     -0.6731    
   1296      1    110     51     -0.7807    
   1297      1    111     51      -1.095    
   1298      1    112     51     -0.1439    
   1299      1    113     51     -0.2608E-01
   1300      1    114     51      -1.095    
   1301      1    115     51      -1.095    
   1302      1    116     51      -1.095    
   1303      1    117     51      -1.095    
   1304      1    118     51      -1.095    
   1305      1    119     51      -1.095    
   1306      1    120     51      -1.095    
   1307      1    121     51      -1.095    
   1308      1    122     51      -1.095    
   1309      1    123     51     -0.2185    
   1310      1    125     51      -1.046    
   1311      1    126     51     -0.9730    
   1312      1    130     51      -1.303    
   1313      1    131     51      -3.090    
   1314      1    132     51      -1.307    
   1315      1    137     51     -0.1330    
   1316      1    138     51      -3.090    
   1317      1    139     51      -3.090    
   1318      1    140     51      -3.090    
   1319      1    141     51      -1.997    
   1320      1    143     51      -1.573    
   1321      1    144     51      -3.090    
   1322      1    145     51      -1.037    
   1323      1    154     51      -3.537    
   1324      1    155     51      -8.018    
   1325      1    156     51      -3.235    
   1326      1    158     51      -6.028    
   1327      1    159     51      -8.018    
   1328      1    160     51      -8.018    
   1329      1    161     51      -7.516    
   1330      1    165     51     -0.5858    
   1331      1    166     51      -1.569    
   1332      1    167     51     -0.7398    
   1333      1    184     51      -3.361    
   1334      1    185     51      -3.342    
   1335      1    186     51     -0.6044    
   1336      1    187     51     -0.4851    
   1337      1    195     51      -3.578    
   1338      1    196     51      -4.103    
   1339      1     77     52     -0.9181    
   1340      1     78     52     -0.9316    
   1341      1     88     52     -0.4180    
   1342      1     89     52     -0.5085    
   1343      1     90     52     -0.2963E-02
   1344      1     95     52     -0.4859    
   1345      1     96     52      -1.036    
   1346      1     97     52     -0.3901    
   1347      1    110     52     -0.3570    
   1348      1    111     52     -0.4973    
   1349      1    112     52     -0.6761E-01
   1350      1    113     52     -0.1725E-01
   1351      1    114     52      -1.095    
   1352      1    115     52     -0.9868    
   1353      1    116     52     -0.4532    
   1354      1    117     52     -0.4444    
   1355      1    118     52     -0.4356    
   1356      1    119     52     -0.7485    
   1357      1    120     52      -1.095    
   1358      1    121     52     -0.6579    
   1359      1    122     52     -0.4003    
   1360      1    123     52     -0.8101E-01
   1361      1    125     52      -1.037    
   1362      1    126     52     -0.9818    
   1363      1    130     52     -0.3849    
   1364      1    131     52     -0.9067    
   1365      1    132     52      -1.638    
   1366      1    133     52      -2.233    
   1367      1    134     52      -2.258    
   1368      1    135     52      -2.282    
   1369      1    136     52     -0.2787    
   1370      1    137     52     -0.1082    
   1371      1    138     52      -3.090    
   1372      1    139     52      -2.637    
   1373      1    140     52     -0.6837    
   1374      1    141     52      -1.273    
   1375      1    142     52      -2.456    
   1376      1    143     52      -2.785    
   1377      1    144     52      -3.090    
   1378      1    145     52      -1.062    
   1379      1    147     52      -5.433    
   1380      1    148     52      -6.757    
   1381      1    149     52      -663.7    
   1382      1    150     52      -608.1    
   1383      1    154     52      -3.473    
   1384      1    155     52      -8.018    
   1385      1    156     52      -3.299    
   1386      1    158     52     -0.4580    
   1387      1    159     52     -0.5568    
   1388      1    160     52      -7.260    
   1389      1    161     52      -7.580    
   1390      1    165     52     -0.5733    
   1391      1    166     52      -1.569    
   1392      1    167     52     -0.7522    
   1393      1    185     52     -0.3098    
   1394      1    186     52      -4.164    
   1395      1    187     52      -3.207    
   1396      1    195     52      -3.545    
   1397      1    196     52      -4.136    
   1398      1     88     53      -1.152    
   1399      1     89     53      -1.382    
   1400      1     90     53     -0.1563E-01
   1401      1    113     53     -0.8447E-02
   1402      1    114     53      -1.095    
   1403      1    115     53     -0.9161    
   1404      1    119     53     -0.5185    
   1405      1    120     53      -1.095    
   1406      1    121     53     -0.4061    
   1407      1    125     53      -1.029    
   1408      1    126     53     -0.9906    
   1409      1    132     53      -1.734    
   1410      1    133     53      -3.090    
   1411      1    134     53      -3.090    
   1412      1    135     53      -3.090    
   1413      1    136     53     -0.3965    
   1414      1    137     53     -0.1707    
   1415      1    138     53      -6.579    
   1416      1    139     53      -8.977    
   1417      1    141     53      -1.134    
   1418      1    142     53      -3.406    
   1419      1    143     53      -3.473    
   1420      1    144     53      -3.539    
   1421      1    145     53      -1.728    
   1422      1    146     53     -0.7975    
   1423      1    147     53      -6.113    
   1424      1    148     53      -7.333    
   1425      1    149     53      -721.8    
   1426      1    150     53      -661.9    
   1427      1    154     53      -2.951    
   1428      1    155     53      -6.888    
   1429      1    156     53      -3.321    
   1430      1    157     53     -0.8200    
   1431      1    158     53     -0.2263    
   1432      1    160     53      -6.698    
   1433      1    161     53      -7.142    
   1434      1    165     53     -0.8465    
   1435      1    166     53      -2.395    
   1436      1    167     53      -1.809    
   1437      1    168     53      -1.266    
   1438      1    169     53     -0.4331    
   1439      1    185     53     -0.1751    
   1440      1    186     53      -2.556    
   1441      1    187     53      -2.274    
   1442      1    188     53      -1.437    
   1443      1    189     53     -0.9126    
   1444      1    195     53      -1.909    
   1445      1    196     53      -2.227    
   1446      1    197     53     -0.5168E-03
   1447      1    200     53     -0.5490    
   1448      1    201     53      -1.803    
   1449      1    202     53      -1.864    
   1450      1    203     53      -1.930    
   1451      1    204     53      -1.960    
   1452      1    205     53      -1.989    
   1453      1    206     53     -0.4534    
   1454      1    224     53     -0.2310    
   1455      1    225     53     -0.7080    
   1456      1    226     53     -0.3683    
   1457      1    232     53     -0.5811    
   1458      1    233     53     -0.5516    
   1459      1     88     54      -1.334    
   1460      1     89     54      -1.620    
   1461      1     90     54     -0.3177E-01
   1462      1    113     54     -0.6106E-03
   1463      1    114     54     -0.2035    
   1464      1    115     54     -0.1645    
   1465      1    119     54     -0.7381E-01
   1466      1    120     54     -0.1509    
   1467      1    121     54      -2.166    
   1468      1    122     54      -3.428    
   1469      1    123     54      -223.0    
   1470      1    124     54      -288.7    
   1471      1    125     54      -20.04    
   1472      1    126     54     -0.3990    
   1473      1    127     54      -3.584    
   1474      1    128     54      -2.737    
   1475      1    132     54     -0.6927E-01
   1476      1    133     54     -0.1052    
   1477      1    134     54      -257.1    
   1478      1    135     54      -365.5    
   1479      1    136     54      -371.8    
   1480      1    137     54      -379.6    
   1481      1    138     54      -604.5    
   1482      1    139     54      -499.0    
   1483      1    141     54      -3.786    
   1484      1    142     54      -11.48    
   1485      1    143     54      -11.48    
   1486      1    144     54      -11.48    
   1487      1    145     54      -11.48    
   1488      1    146     54      -11.48    
   1489      1    147     54      -2.344    
   1490      1    149     54      -209.9    
   1491      1    150     54      -197.1    
   1492      1    156     54      -2.994    
   1493      1    157     54      -5.229    
   1494      1    158     54      -1.422    
   1495      1    160     54      -4.619    
   1496      1    161     54      -5.027    
   1497      1    165     54      -1.813    
   1498      1    166     54      -5.189    
   1499      1    167     54      -5.189    
   1500      1    168     54      -5.189    
   1501      1    169     54      -1.763    
   1502      1    187     54     -0.7656    
   1503      1    188     54      -3.577    
   1504      1    189     54      -2.256    
   1505      1    200     54      -1.080    
   1506      1    201     54      -3.577    
   1507      1    202     54      -3.640    
   1508      1    203     54      -3.715    
   1509      1    204     54      -3.715    
   1510      1    205     54      -3.715    
   1511      1    206     54     -0.8617    
   1512      1    224     54     -0.3298    
   1513      1    225     54      -1.023    
   1514      1    226     54     -0.5346    
   1515      1    232     54     -0.7728    
   1516      1    233     54     -0.7374    
   1517      1    246     54     -0.2044E-01
   1518      1    247     54     -0.1164    
   1519      1    248     54     -0.8176E-01
   1520      1     88     55      -1.446    
   1521      1     89     55      -1.769    
   1522      1     90     55     -0.4849E-01
   1523      1    108     55     -0.1098E-01
   1524      1    109     55     -0.3131E-01
   1525      1    110     55     -0.1299E-01
   1526      1    121     55      -2.118    
   1527      1    122     55      -3.428    
   1528      1    123     55      -216.6    
   1529      1    124     55      -278.4    
   1530      1    125     55      -20.97    
   1531      1    126     55     -0.2621    
   1532      1    127     55      -3.273    
   1533      1    128     55      -2.483    
   1534      1    134     55      -204.0    
   1535      1    135     55      -288.4    
   1536      1    136     55      -288.1    
   1537      1    137     55      -287.6    
   1538      1    138     55      -454.0    
   1539      1    139     55      -374.8    
   1540      1    140     55      -3.039    
   1541      1    141     55      -4.808    
   1542      1    142     55      -8.259    
   1543      1    143     55      -9.751    
   1544      1    144     55      -11.48    
   1545      1    145     55      -11.48    
   1546      1    146     55      -11.48    
   1547      1    147     55      -3.753    
   1548      1    148     55      -1.715    
   1549      1    149     55      -138.5    
   1550      1    150     55      -130.4    
   1551      1    156     55      -2.953    
   1552      1    157     55      -5.229    
   1553      1    158     55      -1.464    
   1554      1    160     55      -4.578    
   1555      1    161     55      -5.068    
   1556      1    165     55      -1.772    
   1557      1    166     55      -5.189    
   1558      1    167     55      -5.189    
   1559      1    168     55      -5.189    
   1560      1    169     55      -1.804    
   1561      1    187     55     -0.2704    
   1562      1    188     55      -1.279    
   1563      1    189     55      -1.640    
   1564      1    190     55      -2.354    
   1565      1    191     55      -1.150    
   1566      1    197     55      -2.505    
   1567      1    198     55      -2.222    
   1568      1    200     55     -0.2771    
   1569      1    201     55     -0.9152    
   1570      1    202     55      -2.159    
   1571      1    203     55      -3.715    
   1572      1    204     55      -1.989    
   1573      1    205     55     -0.8346    
   1574      1    206     55     -0.1933    
   1575      1    222     55     -0.1183    
   1576      1    223     55     -0.7494    
   1577      1    224     55     -0.7800    
   1578      1    225     55     -0.8329    
   1579      1    226     55     -0.4409    
   1580      1    230     55     -0.6203    
   1581      1    231     55     -0.8002    
   1582      1    232     55     -0.8178    
   1583      1    233     55     -0.7437    
   1584      1    246     55     -0.2069    
   1585      1    247     55      -1.151    
   1586      1    248     55     -0.7653    
   1587      1     53     56     -0.7058    
   1588      1     54     56     -0.8241    
   1589      1     88     56     -0.2136    
   1590      1     89     56     -0.2500    
   1591      1     90     56     -0.7760E-02
   1592      1     99     56      -1.179    
   1593      1    100     56      -1.603    
   1594      1    101     56     -0.1670    
   1595      1    108     56     -0.8766    
   1596      1    109     56      -1.693    
   1597      1    110     56     -0.5535    
   1598      1    139     56      -1.820    
   1599      1    140     56      -11.48    
   1600      1    141     56      -7.876    
   1601      1    143     56      -5.388    
   1602      1    144     56      -11.48    
   1603      1    145     56      -11.48    
   1604      1    146     56      -11.48    
   1605      1    147     56      -6.604    
   1606      1    148     56      -5.229    
   1607      1    149     56     -0.3380    
   1608      1    156     56      -2.912    
   1609      1    157     56      -5.229    
   1610      1    158     56      -1.505    
   1611      1    160     56      -4.537    
   1612      1    161     56      -5.109    
   1613      1    165     56      -1.732    
   1614      1    166     56      -5.189    
   1615      1    167     56      -5.189    
[...]
  88230      1    108    258       0.000    
  88231      1    108    259       0.000    
  88232      1    108    260       0.000    
  88233      1    108    261       0.000    
  88234      1    109    241       0.000    
  88235      1    109    242       0.000    
  88236      1    109    243       0.000    
  88237      1    109    245       0.000    
  88238      1    109    247       0.000    
  88239      1    109    250       0.000    
  88240      1    109    252       0.000    
  88241      1    109    255       0.000    
  88242      1    109    258       0.000    
  88243      1    109    259       0.000    
  88244      1    109    260       0.000    
  88245      1    109    294       0.000    
  88246      1    109    339       0.000    
  88247      1    110    244       0.000    
  88248      1    110    245       0.000    
  88249      1    110    246       0.000    
  88250      1    110    249       0.000    
  88251      1    110    252       0.000    
  88252      1    110    255       0.000    
  88253      1    110    257       0.000    
  88254      1    110    295       0.000    
  88255      1    110    332       0.000    
  88256      1    110    333       0.000    
  88257      1    110    338       0.000    
  88258      1    111    246       0.000    
  88259      1    111    249       0.000    
  88260      1    111    252       0.000    
  88261      1    111    254       0.000    
  88262      1    111    256       0.000    
  88263      1    111    271       0.000    
  88264      1    111    285       0.000    
  88265      1    111    286       0.000    
  88266      1    111    295       0.000    
  88267      1    111    332       0.000    
  88268      1    111    338       0.000    
  88269      1    112    247       0.000    
  88270      1    112    249       0.000    
  88271      1    112    251       0.000    
  88272      1    112    252       0.000    
  88273      1    112    253       0.000    
  88274      1    112    254       0.000    
  88275      1    112    255       0.000    
  88276      1    112    271       0.000    
  88277      1    112    284       0.000    
  88278      1    112    285       0.000    
  88279      1    112    295       0.000    
  88280      1    112    333       0.000    
  88281      1    113    248       0.000    
  88282      1    113    249       0.000    
  88283      1    113    250       0.000    
  88284      1    113    255       0.000    
  88285      1    113    270       0.000    
  88286      1    113    277       0.000    
  88287      1    113    278       0.000    
  88288      1    113    283       0.000    
  88289      1    113    295       0.000    
  88290      1    113    298       0.000    
  88291      1    113    299       0.000    
  88292      1    113    322       0.000    
  88293      1    113    332       0.000    
  88294      1    114    254       0.000    
  88295      1    114    262       0.000    
  88296      1    114    263       0.000    
  88297      1    114    269       0.000    
  88298      1    114    270       0.000    
  88299      1    114    276       0.000    
  88300      1    114    283       0.000    
  88301      1    114    291       0.000    
  88302      1    114    296       0.000    
  88303      1    114    297       0.000    
  88304      1    114    298       0.000    
  88305      1    114    323       0.000    
  88306      1    114    333       0.000    
  88307      1    115    254       0.000    
  88308      1    115    261       0.000    
  88309      1    115    270       0.000    
  88310      1    115    275       0.000    
  88311      1    115    276       0.000    
  88312      1    115    283       0.000    
  88313      1    115    291       0.000    
  88314      1    115    297       0.000    
  88315      1    115    298       0.000    
  88316      1    115    304       0.000    
  88317      1    115    306       0.000    
  88318      1    115    323       0.000    
  88319      1    115    324       0.000    
  88320      1    115    333       0.000    
  88321      1    116    254       0.000    
  88322      1    116    255       0.000    
  88323      1    116    260       0.000    
  88324      1    116    261       0.000    
  88325      1    116    270       0.000    
  88326      1    116    271       0.000    
  88327      1    116    272       0.000    
  88328      1    116    273       0.000    
  88329      1    116    274       0.000    
  88330      1    116    283       0.000    
  88331      1    116    291       0.000    
  88332      1    116    298       0.000    
  88333      1    116    299       0.000    
  88334      1    116    304       0.000    
  88335      1    116    306       0.000    
  88336      1    116    325       0.000    
  88337      1    116    326       0.000    
  88338      1    117    255       0.000    
  88339      1    117    256       0.000    
  88340      1    117    257       0.000    
  88341      1    117    258       0.000    
  88342      1    117    259       0.000    
  88343      1    117    267       0.000    
  88344      1    117    268       0.000    
  88345      1    117    269       0.000    
  88346      1    117    282       0.000    
  88347      1    117    291       0.000    
  88348      1    117    299       0.000    
  88349      1    117    305       0.000    
  88350      1    117    306       0.000    
  88351      1    117    312       0.000    
  88352      1    117    313       0.000    
  88353      1    117    327       0.000    
  88354      1    118    256       0.000    
  88355      1    118    258       0.000    
  88356      1    118    267       0.000    
  88357      1    118    281       0.000    
  88358      1    118    282       0.000    
  88359      1    118    291       0.000    
  88360      1    118    298       0.000    
  88361      1    118    305       0.000    
  88362      1    118    312       0.000    
  88363      1    118    323       0.000    
  88364      1    118    327       0.000    
  88365      1    119    256       0.000    
  88366      1    119    257       0.000    
  88367      1    119    267       0.000    
  88368      1    119    281       0.000    
  88369      1    119    291       0.000    
  88370      1    119    298       0.000    
  88371      1    119    305       0.000    
  88372      1    119    312       0.000    
  88373      1    119    324       0.000    
  88374      1    119    327       0.000    
  88375      1    120    257       0.000    
  88376      1    120    260       0.000    
  88377      1    120    261       0.000    
  88378      1    120    262       0.000    
  88379      1    120    266       0.000    
  88380      1    120    267       0.000    
  88381      1    120    280       0.000    
  88382      1    120    291       0.000    
  88383      1    120    298       0.000    
  88384      1    120    300       0.000    
  88385      1    120    306       0.000    
  88386      1    120    312       0.000    
  88387      1    120    325       0.000    
  88388      1    120    326       0.000    
  88389      1    120    327       0.000    
  88390      1    121    257       0.000    
  88391      1    121    258       0.000    
  88392      1    121    259       0.000    
  88393      1    121    263       0.000    
  88394      1    121    264       0.000    
  88395      1    121    266       0.000    
  88396      1    121    270       0.000    
  88397      1    121    280       0.000    
  88398      1    121    291       0.000    
  88399      1    121    298       0.000    
  88400      1    121    299       0.000    
  88401      1    121    300       0.000    
  88402      1    121    305       0.000    
  88403      1    121    311       0.000    
  88404      1    121    312       0.000    
  88405      1    121    326       0.000    
  88406      1    121    327       0.000    
  88407      1    122    263       0.000    
  88408      1    122    265       0.000    
  88409      1    122    271       0.000    
  88410      1    122    272       0.000    
  88411      1    122    278       0.000    
  88412      1    122    279       0.000    
  88413      1    122    291       0.000    
  88414      1    122    298       0.000    
  88415      1    122    305       0.000    
  88416      1    122    311       0.000    
  88417      1    123    263       0.000    
  88418      1    123    273       0.000    
  88419      1    123    278       0.000    
  88420      1    123    291       0.000    
  88421      1    123    295       0.000    
  88422      1    123    299       0.000    
  88423      1    123    305       0.000    
  88424      1    123    310       0.000    
  88425      1    123    326       0.000    
  88426      1    124    264       0.000    
  88427      1    124    272       0.000    
  88428      1    124    274       0.000    
  88429      1    124    278       0.000    
  88430      1    124    291       0.000    
  88431      1    124    295       0.000    
  88432      1    124    300       0.000    
  88433      1    124    304       0.000    
  88434      1    124    310       0.000    
  88435      1    124    326       0.000    
  88436      1    125    265       0.000    
  88437      1    125    267       0.000    
  88438      1    125    268       0.000    
  88439      1    125    271       0.000    
  88440      1    125    274       0.000    
  88441      1    125    277       0.000    
  88442      1    125    291       0.000    
  88443      1    125    295       0.000    
  88444      1    125    300       0.000    
  88445      1    125    301       0.000    
  88446      1    125    302       0.000    
  88447      1    125    303       0.000    
  88448      1    125    304       0.000    
  88449      1    125    310       0.000    
  88450      1    125    325       0.000    
  88451      1    126    266       0.000    
  88452      1    126    267       0.000    
  88453      1    126    271       0.000    
  88454      1    126    274       0.000    
  88455      1    126    277       0.000    
  88456      1    126    291       0.000    
  88457      1    126    295       0.000    
  88458      1    126    300       0.000    
  88459      1    126    310       0.000    
  88460      1    126    312       0.000    
  88461      1    127    267       0.000    
  88462      1    127    271       0.000    
  88463      1    127    273       0.000    
  88464      1    127    277       0.000    
  88465      1    127    286       0.000    
  88466      1    127    290       0.000    
  88467      1    127    294       0.000    
  88468      1    127    299       0.000    
  88469      1    127    310       0.000    
  88470      1    127    311       0.000    
  88471      1    127    324       0.000    
  88472      1    128    267       0.000    
  88473      1    128    270       0.000    
  88474      1    128    271       0.000    
  88475      1    128    273       0.000    
  88476      1    128    276       0.000    
  88477      1    128    286       0.000    
  88478      1    128    287       0.000    
  88479      1    128    288       0.000    
  88480      1    128    290       0.000    
  88481      1    128    294       0.000    
  88482      1    128    299       0.000    
  88483      1    128    303       0.000    
  88484      1    128    309       0.000    
  88485      1    128    310       0.000    
  88486      1    128    311       0.000    
  88487      1    128    323       0.000    
  88488      1    129    268       0.000    
  88489      1    129    269       0.000    
  88490      1    129    271       0.000    
  88491      1    129    272       0.000    
  88492      1    129    273       0.000    
  88493      1    129    276       0.000    
  88494      1    129    277       0.000    
  88495      1    129    289       0.000    
  88496      1    129    290       0.000    
  88497      1    129    293       0.000    
  88498      1    129    299       0.000    
  88499      1    129    300       0.000    
  88500      1    129    301       0.000    
  88501      1    129    302       0.000    
  88502      1    129    305       0.000    
  88503      1    129    307       0.000    
  88504      1    129    308       0.000    
  88505      1    129    311       0.000    
  88506      1    130    273       0.000    
  88507      1    130    274       0.000    
  88508      1    130    276       0.000    
  88509      1    130    277       0.000    
  88510      1    130    288       0.000    
  88511      1    130    289       0.000    
  88512      1    130    290       0.000    
  88513      1    130    291       0.000    
  88514      1    130    292       0.000    
  88515      1    130    299       0.000    
  88516      1    130    303       0.000    
  88517      1    130    304       0.000    
  88518      1    130    305       0.000    
  88519      1    130    306       0.000    
  88520      1    130    310       0.000    
  88521      1    131    274       0.000    
  88522      1    131    277       0.000    
  88523      1    131    287       0.000    
  88524      1    131    289       0.000    
  88525      1    131    292       0.000    
  88526      1    131    293       0.000    
  88527      1    131    294       0.000    
  88528      1    131    299       0.000    
  88529      1    131    303       0.000    
  88530      1    131    310       0.000    
  88531      1    132    274       0.000    
  88532      1    132    276       0.000    
  88533      1    132    283       0.000    
  88534      1    132    288       0.000    
  88535      1    132    295       0.000    
  88536      1    132    296       0.000    
  88537      1    132    297       0.000    
  88538      1    132    299       0.000    
  88539      1    132    301       0.000    
  88540      1    132    302       0.000    
  88541      1    132    310       0.000    
  88542      1    133    275       0.000    
  88543      1    133    276       0.000    
  88544      1    133    283       0.000    
  88545      1    133    288       0.000    
  88546      1    133    297       0.000    
  88547      1    133    298       0.000    
  88548      1    133    300       0.000    
  88549      1    133    301       0.000    
  88550      1    133    304       0.000    
  88551      1    133    310       0.000    
  88552      1    133    317       0.000    
  88553      1    134    275       0.000    
  88554      1    134    276       0.000    
  88555      1    134    284       0.000    
  88556      1    134    289       0.000    
  88557      1    134    299       0.000    
  88558      1    134    300       0.000    
  88559      1    134    304       0.000    
  88560      1    134    310       0.000    
  88561      1    134    315       0.000    
  88562      1    134    316       0.000    
  88563      1    135    277       0.000    
  88564      1    135    278       0.000    
  88565      1    135    284       0.000    
  88566      1    135    288       0.000    
  88567      1    135    301       0.000    
  88568      1    135    302       0.000    
  88569      1    135    303       0.000    
  88570      1    135    305       0.000    
  88571      1    135    310       0.000    
  88572      1    135    313       0.000    
  88573      1    135    314       0.000    
  88574      1    136    279       0.000    
  88575      1    136    282       0.000    
  88576      1    136    285       0.000    
  88577      1    136    286       0.000    
  88578      1    136    287       0.000    
  88579      1    136    301       0.000    
  88580      1    136    304       0.000    
  88581      1    136    308       0.000    
  88582      1    136    309       0.000    
  88583      1    136    310       0.000    
  88584      1    136    312       0.000    
  88585      1    137    280       0.000    
  88586      1    137    282       0.000    
  88587      1    137    285       0.000    
  88588      1    137    302       0.000    
  88589      1    137    303       0.000    
  88590      1    137    306       0.000    
  88591      1    137    307       0.000    
  88592      1    137    309       0.000    
  88593      1    137    311       0.000    
  88594      1    138    281       0.000    
  88595      1    138    282       0.000    
  88596      1    138    284       0.000    
  88597      1    138    302       0.000    
  88598      1    138    307       0.000    
  88599      1    139    282       0.000    
  88600      1    139    283       0.000    
  88601      1    139    284       0.000    
  88602      1    139    302       0.000    
  88603      1    139    303       0.000    
  88604      1    139    305       0.000    
  88605      1    139    306       0.000    
  88606      1    140    302       0.000    
  88607      1    140    303       0.000    
  88608      1    140    304       0.000    
  88609      1    140    305       0.000    
  88610      1    140    306       0.000    
  88611      1    140    307       0.000    
  88612      1    141    302       0.000    

  88612 WELLS

 331676 DRAINS



                           RECHARGE
 READING ON UNIT   19 WITH FORMAT: (586E15.6)          
 
 SOLVING FOR HEAD 

    ------------------------------------------------
       NWT REQUIRED            4 OUTER ITERATIONS 
       AND A TOTAL OF          6 INNER ITERATIONS.
    ------------------------------------------------

 OUTPUT CONTROL FOR STRESS PERIOD    1   TIME STEP    1
    SAVE HEAD FOR ALL LAYERS

 HEAD WILL BE SAVED ON UNIT   51 AT END OF TIME STEP    1, STRESS PERIOD    1
1
  VOLUMETRIC BUDGET FOR ENTIRE MODEL AT END OF TIME STEP    1, STRESS PERIOD   1
  ------------------------------------------------------------------------------

     CUMULATIVE VOLUMES      L**3       RATES FOR THIS TIME STEP      L**3/T
     ------------------                 ------------------------

           IN:                                      IN:
           ---                                      ---
             STORAGE =     4973637.0000               STORAGE =     4973637.0000
       CONSTANT HEAD =           0.0000         CONSTANT HEAD =           0.0000
               WELLS =           0.0000                 WELLS =           0.0000
              DRAINS =           0.0000                DRAINS =           0.0000
            RECHARGE =    10936286.0000              RECHARGE =    10936286.0000

            TOTAL IN =    15909923.0000              TOTAL IN =    15909923.0000

          OUT:                                     OUT:
          ----                                     ----
             STORAGE =    11455505.0000               STORAGE =    11455505.0000
       CONSTANT HEAD =           0.0000         CONSTANT HEAD =           0.0000
               WELLS =     2243868.2500                 WELLS =     2243868.2500
              DRAINS =     2210647.5000                DRAINS =     2210647.5000
            RECHARGE =           0.0000              RECHARGE =           0.0000

           TOTAL OUT =    15910020.0000             TOTAL OUT =    15910020.0000

            IN - OUT =         -97.0000              IN - OUT =         -97.0000

 PERCENT DISCREPANCY =          -0.00     PERCENT DISCREPANCY =          -0.00






         TIME SUMMARY AT END OF TIME STEP    1 IN STRESS PERIOD    1
                    SECONDS     MINUTES      HOURS       DAYS        YEARS
                    -----------------------------------------------------------
   TIME STEP LENGTH  86400.      1440.0      24.000      1.0000     2.73785E-03
 STRESS PERIOD TIME  86400.      1440.0      24.000      1.0000     2.73785E-03
         TOTAL TIME  86400.      1440.0      24.000      1.0000     2.73785E-03
1

 Run end date and time (yyyy/mm/dd hh:mm:ss): 2020/10/13 16:13:05
 Elapsed run time:  3.056 Seconds

